<?xml version="1.0" encoding="UTF-8"?>

<!-- generated on 2022-03-10 11:17:49 by Eclipse SUMO polyconvert Version 1.12.0
<configuration xmlns:xsi="http://www.w3.org/2001/XMLSchema-instance" xsi:noNamespaceSchemaLocation="http://sumo.dlr.de/xsd/polyconvertConfiguration.xsd">

    <input>
        <net-file value="osm.net.xml"/>
        <osm-files value="osm_bbox.osm.xml"/>
        <osm.keep-full-type value="true"/>
        <type-file value="C:\Program%20Files%20(x86)\Eclipse\Sumo\data\typemap\osmPolyconvert.typ.xml"/>
    </input>

    <output>
        <output-file value="osm.poly.xml"/>
    </output>

    <processing>
        <poi-layer-offset value="5"/>
    </processing>

    <report>
        <verbose value="true"/>
    </report>

</configuration>
-->

<additional xmlns:xsi="http://www.w3.org/2001/XMLSchema-instance" xsi:noNamespaceSchemaLocation="http://sumo.dlr.de/xsd/additional_file.xsd">
    <location netOffset="-584257.37,-5961118.23" convBoundary="-756.17,-6283.63,12190.15,4974.47" origBoundary="-1.731224,53.733239,-1.537915,53.836339" projParameter="+proj=utm +zone=30 +ellps=WGS84 +datum=WGS84 +units=m +no_defs"/>

    <poly id="1002208542" type="natural.wood" color="140,196,107" fill="1" layer="-4.00" shape="2557.222409,1452.239514 2579.256410,1455.119318 2588.825808,1434.664601 2599.352758,1409.831883 2631.215273,1378.340136 2625.531466,1370.477840 2600.559246,1392.760718 2574.515184,1424.883783 2556.332442,1443.052994 2557.222409,1452.239514"/>
    <poly id="1002208543" type="landuse.grass" color="194,194,130" fill="1" layer="-3.00" shape="2338.556287,1387.065402 2319.303035,1413.996158 2341.266397,1445.240367 2366.696367,1455.404549 2359.449843,1436.229209 2372.441454,1431.183851 2391.265225,1454.802665 2430.981545,1466.467308 2434.940647,1452.963807 2450.748222,1477.228042 2463.596596,1460.728925 2434.544431,1445.912041 2423.621449,1434.603124 2338.556287,1387.065402"/>
    <poly id="1002208544" type="natural.wood" color="140,196,107" fill="1" layer="-4.00" shape="2338.556287,1387.065402 2344.629310,1378.564354 2365.295924,1393.403326 2506.255634,1458.994294 2444.236851,1542.743899 2424.755964,1516.230353 2372.792635,1488.658548 2321.727557,1479.421676 2314.173914,1496.030349 2312.412220,1514.682670 2300.670239,1528.743247 2278.912071,1520.583764 2270.756752,1503.161193 2241.110459,1510.825445 2276.976962,1424.775100 2302.369465,1437.686999 2319.303035,1413.996158 2341.266397,1445.240367 2366.696367,1455.404549 2359.449843,1436.229209 2372.441454,1431.183851 2391.265225,1454.802665 2430.981545,1466.467308 2434.940647,1452.963807 2450.748222,1477.228042 2463.596596,1460.728925 2434.544431,1445.912041 2423.621449,1434.603124 2338.556287,1387.065402"/>
    <poly id="1025125991" type="building.yes" color="255,230,230" fill="1" layer="-1.00" shape="845.073791,1762.157423 866.893252,1705.521053 914.157493,1722.340331 892.739185,1778.983803 845.073791,1762.157423"/>
    <poly id="142316615" type="landuse.allotments" color="194,194,130" fill="1" layer="-3.00" shape="2281.349124,1855.756052 2298.400672,1862.604286 2311.228448,1867.760702 2332.402250,1810.306327 2347.832140,1768.525998 2359.885723,1734.072554 2370.201200,1702.424726 2372.548530,1694.833993 2371.814875,1685.372195 2352.090156,1678.785782 2347.871552,1679.297436 2349.727388,1693.965958 2340.673639,1697.337119 2281.349124,1855.756052"/>
    <poly id="142316618" type="landuse.commercial" color="209,209,204" fill="1" layer="-3.00" shape="2392.839265,1771.085054 2386.798863,1781.400604 2373.868274,1846.463707 2367.439733,1878.795636 2382.581469,1913.686316 2384.672250,1918.510382 2439.137914,1933.063877 2458.614176,1941.971968 2507.067969,1953.921919 2570.823561,1951.978728 2580.106663,1935.892244 2574.340137,1925.780463 2573.356328,1918.817915 2573.316026,1885.531402 2532.721039,1811.784709 2495.885560,1800.873677 2472.453731,1794.251319 2392.839265,1771.085054"/>
    <poly id="142725086" type="natural.water" color="181,209,209" fill="1" layer="-4.00" shape="1694.204555,1729.630149 1688.816942,1708.108571 1682.651587,1695.208479 1674.921877,1685.707238 1671.238417,1682.913022 1666.539424,1679.821927 1661.834945,1677.387323 1657.445585,1672.142986 1652.666327,1669.117202 1645.359430,1672.087787 1639.844196,1671.474520 1636.774198,1669.348191 1634.138950,1671.881597 1626.001144,1673.112015 1620.587623,1676.284355 1616.017957,1680.852146 1612.640641,1686.131816 1611.327883,1691.616344 1612.438317,1697.145386 1615.067550,1704.260331 1616.897782,1708.255726 1613.025632,1712.146362 1612.267815,1715.749227 1615.138181,1719.418744 1607.425380,1725.486800 1603.895907,1729.728724 1600.087132,1730.170677 1598.964274,1725.676367 1595.479149,1727.504211 1594.356625,1731.957280 1589.326915,1733.244845 1586.393202,1733.024038 1583.551677,1728.142054 1578.975512,1732.709760 1572.398150,1733.623938 1568.335860,1738.546075 1591.653792,1750.726053 1598.590276,1753.568828 1601.540525,1749.661246 1604.045019,1754.959937 1607.303476,1757.223251 1605.705148,1762.836076 1615.638006,1767.147249 1624.739984,1770.074362 1632.804847,1772.804379 1639.198292,1772.576879 1644.155192,1775.249802 1661.927390,1775.921435 1664.651590,1777.863369 1673.686584,1774.757658 1678.519713,1774.846514 1679.832531,1769.362004 1677.878629,1762.782477 1679.515035,1758.327746 1683.485590,1758.400747 1684.925234,1755.333472 1683.938855,1752.377391 1686.739192,1750.537021 1690.189564,1750.600464 1691.477036,1746.495434 1689.310821,1742.148843 1693.893187,1736.891385 1694.204555,1729.630149"/>
    <poly id="142725091" type="landuse.residential" color="235,235,227" fill="1" layer="-3.00" shape="1100.289863,1292.702063 1115.903447,1303.459119 1133.559140,1336.933480 1097.649766,1351.790874 1121.171991,1451.420163 1125.580508,1470.085337 1134.866472,1472.002134 1138.407977,1472.856954 1156.975282,1477.302604 1152.554531,1492.122944 1168.129465,1495.579171 1172.241851,1482.856504 1207.384126,1490.821443 1268.954392,1246.373945 1249.745195,1239.879612 1244.819612,1248.058030 1234.060370,1227.618452 1100.289863,1292.702063"/>
    <poly id="142725093" type="landuse.farmland" color="194,194,130" fill="1" layer="-3.00" shape="1488.156861,2051.801590 1506.294739,2028.897926 1470.902493,1867.463079 1469.447253,1836.554619 1470.609685,1809.088384 1482.114205,1769.013994 1483.851321,1747.567728 1467.409455,1726.789603 1445.601693,1705.868640 1404.189770,1633.608557 1391.640756,1600.571623 1366.307394,1607.730576 1341.704195,1607.035148 1271.142803,1595.905922 1228.235043,1668.992326 1230.768710,1677.763443 1203.468670,1716.870731 1224.338846,1808.562083 1238.748071,1830.314852 1279.122974,2007.140649 1280.068007,2011.286638 1397.973720,2031.385197 1488.156861,2051.801590"/>
    <poly id="142725094" type="landuse.recreation_ground" color="194,194,130" fill="1" layer="-3.00" shape="1634.008839,1349.851766 1452.111891,1282.880236 1350.459580,1245.461971 1322.588876,1329.951524 1262.935854,1308.895275 1253.213475,1348.468581 1252.743646,1350.385225 1219.889914,1484.161530 1274.218752,1501.236011 1271.759201,1513.254353 1307.857555,1523.307462 1271.142803,1595.905922 1341.704195,1607.035148 1366.307394,1607.730576 1391.640756,1600.571623 1423.406489,1596.468642 1450.742436,1668.348360 1515.315510,1646.774885 1546.633921,1636.888812 1605.183732,1648.502679 1626.834136,1639.964174 1691.376199,1661.704947 1754.633994,1697.723224 1772.716767,1624.629612 1742.492387,1608.671496 1764.833239,1539.729259 1791.349235,1551.045395 1799.148096,1523.156064 1600.963031,1461.565351 1634.008839,1349.851766"/>
    <poly id="142725096" type="landuse.industrial" color="209,209,204" fill="1" layer="-3.00" shape="1262.935854,1308.895275 1284.077437,1228.844968 1292.312824,1224.477474 1350.459580,1245.461971 1322.588876,1329.951524 1262.935854,1308.895275"/>
    <poly id="142725097" type="landuse.farmland" color="194,194,130" fill="1" layer="-3.00" shape="875.128405,1998.362393 893.472277,1990.383543 1025.626389,1899.658324 1036.304978,1877.551591 1088.579733,1834.470177 1195.257914,1724.265774 1196.135266,1683.840682 1187.404258,1655.192004 1183.263598,1586.219512 1207.384126,1490.821443 1172.241851,1482.856504 1168.129465,1495.579171 1152.554531,1492.122944 1156.975282,1477.302604 1138.407977,1472.856954 1134.866472,1472.002134 1125.580508,1470.085337 1121.171991,1451.420163 1097.649766,1351.790874 1061.845177,1311.831316 931.760493,1375.551312 931.565196,1383.014991 947.283919,1430.653324 956.181101,1471.612667 961.005696,1503.261113 965.031583,1536.441871 967.737209,1578.445745 963.750691,1628.017425 958.059717,1664.860387 947.343638,1702.390751 944.002041,1728.159154 890.420248,1827.094692 865.801574,1896.032639 864.441831,1901.616653 855.512551,1938.389621 844.927235,1993.049379 875.128405,1998.362393"/>
    <poly id="142725100" type="waterway.stream" color="181,209,209" fill="0" layer="-4.00" shape="1694.204555,1729.630149 1711.886916,1733.405188 1733.072380,1737.956968"/>
    <poly id="142725103" type="waterway.stream" color="181,209,209" fill="0" layer="-4.00" shape="1690.149073,1771.788533 1694.959484,1763.441524 1694.344436,1759.635369 1697.991370,1758.322488 1705.843122,1744.344714 1709.245876,1737.685632 1711.886916,1733.405188"/>
    <poly id="142725104" type="leisure.pitch" color="207,245,201" fill="1" layer="-2.00" shape="1532.452326,1373.771846 1545.073148,1360.170671 1563.480655,1357.181119 1603.299134,1367.727670 1612.395125,1373.893038 1618.595831,1384.545693 1602.125227,1440.609348 1588.812209,1446.708133 1572.388286,1447.519410 1541.145379,1437.787074 1526.852474,1428.365963 1523.487418,1416.819538 1524.034418,1400.292533 1532.452326,1373.771846"/>
    <poly id="142725104#1" type="sport.cricket" color="79,230,125" fill="1" layer="-2.00" shape="1532.452326,1373.771846 1545.073148,1360.170671 1563.480655,1357.181119 1603.299134,1367.727670 1612.395125,1373.893038 1618.595831,1384.545693 1602.125227,1440.609348 1588.812209,1446.708133 1572.388286,1447.519410 1541.145379,1437.787074 1526.852474,1428.365963 1523.487418,1416.819538 1524.034418,1400.292533 1532.452326,1373.771846"/>
    <poly id="142725108" type="natural.wood" color="140,196,107" fill="1" layer="-4.00" shape="1404.189770,1633.608557 1391.640756,1600.571623 1423.406489,1596.468642 1450.742436,1668.348360 1463.765040,1687.739412 1475.933357,1703.064039 1493.801780,1701.377533 1518.089321,1715.299849 1529.816507,1699.734754 1510.456503,1672.860112 1515.315510,1646.774885 1546.633921,1636.888812 1605.183732,1648.502679 1626.834136,1639.964174 1691.376199,1661.704947 1754.633994,1697.723224 1753.814790,1701.792339 1742.120618,1742.730666 1735.557438,1766.502983 1729.411493,1795.168430 1724.308485,1814.048789 1709.245059,1875.613247 1701.971007,1902.599820 1691.388678,1938.283760 1662.319124,1923.382299 1646.602313,1918.063293 1649.591424,1902.004050 1660.902196,1890.460172 1665.318238,1851.602452 1606.998220,1839.457803 1529.540815,1824.937212 1490.594271,1814.462815 1470.609685,1809.088384 1482.114205,1769.013994 1483.851321,1747.567728 1467.409455,1726.789603 1445.601693,1705.868640 1404.189770,1633.608557"/>
    <poly id="142725109" type="leisure.pitch" color="207,245,201" fill="1" layer="-2.00" shape="1429.670214,1330.566457 1399.183144,1417.222217 1342.179417,1397.259541 1372.672322,1310.592417 1429.670214,1330.566457"/>
    <poly id="142725111" type="leisure.pitch" color="207,245,201" fill="1" layer="-2.00" shape="1582.035145,1572.191818 1614.249970,1476.966516 1676.882789,1498.059875 1644.666802,1593.284759 1582.035145,1572.191818"/>
    <poly id="142725111#1" type="sport.soccer" color="79,230,125" fill="1" layer="-2.00" shape="1582.035145,1572.191818 1614.249970,1476.966516 1676.882789,1498.059875 1644.666802,1593.284759 1582.035145,1572.191818"/>
    <poly id="142725112" type="leisure.pitch" color="207,245,201" fill="1" layer="-2.00" shape="1489.910813,1494.793424 1572.388324,1521.424216 1554.876537,1575.410118 1472.399902,1548.779625 1489.910813,1494.793424"/>
    <poly id="142725112#1" type="sport.soccer" color="79,230,125" fill="1" layer="-2.00" shape="1489.910813,1494.793424 1572.388324,1521.424216 1554.876537,1575.410118 1472.399902,1548.779625 1489.910813,1494.793424"/>
    <poly id="142725114" type="leisure.pitch" color="207,245,201" fill="1" layer="-2.00" shape="1507.644082,1437.684236 1590.122523,1464.315330 1572.610142,1518.312290 1490.132781,1491.670370 1507.644082,1437.684236"/>
    <poly id="142725114#1" type="sport.soccer" color="79,230,125" fill="1" layer="-2.00" shape="1507.644082,1437.684236 1590.122523,1464.315330 1572.610142,1518.312290 1490.132781,1491.670370 1507.644082,1437.684236"/>
    <poly id="142725115" type="leisure.pitch" color="207,245,201" fill="1" layer="-2.00" shape="1404.211779,1435.420517 1370.897739,1530.103970 1308.619953,1508.286748 1341.932855,1413.602865 1404.211779,1435.420517"/>
    <poly id="142725117" type="leisure.pitch" color="207,245,201" fill="1" layer="-2.00" shape="1664.032228,1602.999804 1700.718177,1502.571162 1766.767767,1526.599749 1730.080753,1627.016764 1664.032228,1602.999804"/>
    <poly id="142725117#1" type="sport.soccer" color="79,230,125" fill="1" layer="-2.00" shape="1664.032228,1602.999804 1700.718177,1502.571162 1766.767767,1526.599749 1730.080753,1627.016764 1664.032228,1602.999804"/>
    <poly id="142725120" type="leisure.pitch" color="207,245,201" fill="1" layer="-2.00" shape="1542.021426,1633.743791 1455.082892,1659.747670 1437.978832,1602.845346 1524.911719,1576.841021 1542.021426,1633.743791"/>
    <poly id="142725120#1" type="sport.soccer" color="79,230,125" fill="1" layer="-2.00" shape="1542.021426,1633.743791 1455.082892,1659.747670 1437.978832,1602.845346 1524.911719,1576.841021 1542.021426,1633.743791"/>
    <poly id="142725121" type="leisure.pitch" color="207,245,201" fill="1" layer="-2.00" shape="1336.052097,1391.560817 1308.852011,1489.850991 1244.201159,1472.042005 1271.406751,1373.740465 1336.052097,1391.560817"/>
    <poly id="142725121#1" type="sport.soccer" color="79,230,125" fill="1" layer="-2.00" shape="1336.052097,1391.560817 1308.852011,1489.850991 1244.201159,1472.042005 1271.406751,1373.740465 1336.052097,1391.560817"/>
    <poly id="142725123" type="leisure.pitch" color="207,245,201" fill="1" layer="-2.00" shape="1489.288789,1475.195748 1458.663856,1565.042513 1399.569194,1544.985092 1430.193094,1455.137953 1489.288789,1475.195748"/>
    <poly id="142725123#1" type="sport.soccer" color="79,230,125" fill="1" layer="-2.00" shape="1489.288789,1475.195748 1458.663856,1565.042513 1399.569194,1544.985092 1430.193094,1455.137953 1489.288789,1475.195748"/>
    <poly id="142734325" type="building.retail" color="255,230,230" fill="1" layer="-1.00" shape="670.646732,1020.719968 675.908197,1006.337370 765.641069,1038.983462 756.025863,1067.075015 738.137879,1061.029732 724.286725,1100.005913 644.808633,1071.898042 663.845620,1018.315089 670.646732,1020.719968"/>
    <poly id="142734325#1" type="shop.doityourself" color="237,199,255" fill="1" layer="-1.00" shape="670.646732,1020.719968 675.908197,1006.337370 765.641069,1038.983462 756.025863,1067.075015 738.137879,1061.029732 724.286725,1100.005913 644.808633,1071.898042 663.845620,1018.315089 670.646732,1020.719968"/>
    <poly id="142734340" type="amenity.parking" color="184,184,179" fill="1" layer="-1.00" shape="756.025863,1067.075015 738.137879,1061.029732 724.286725,1100.005913 703.708612,1155.719559 692.290367,1188.085195 710.234842,1193.897644 744.486903,1157.862987 756.331174,1188.314501 845.966563,1154.078126 817.548804,1068.194124 794.201693,1056.963563 756.025863,1067.075015"/>
    <poly id="143236674" type="leisure.golf_course" color="207,245,201" fill="1" layer="-2.00" shape="1256.805074,420.125208 1389.651080,458.423684 1462.178339,491.557979 1471.711282,495.917069 1549.373075,531.394853 1564.675292,538.386188 1598.951716,554.038942 1593.776647,568.199600 1591.806251,573.605286 1590.578380,576.965822 1555.691344,672.498381 1532.800568,732.250407 1518.606739,724.489363 1495.397398,721.181362 1480.176443,777.335100 1404.874449,980.764637 1360.799618,962.129391 1367.781909,947.434039 1348.175752,847.775055 1336.012434,839.584341 1249.935994,617.052425 1187.011293,534.385743 1152.345005,515.112160 1122.562631,483.820185 1142.869675,471.148379 1157.508420,436.950720 1194.635100,423.651586 1256.805074,420.125208"/>
    <poly id="143236690" type="building.leisure" color="255,230,230" fill="1" layer="-1.00" shape="1125.382226,924.015837 1145.231276,977.071935 1229.584885,945.650802 1209.729842,892.605346 1125.382226,924.015837"/>
    <poly id="143236691" type="building.yes" color="255,230,230" fill="1" layer="-1.00" shape="1065.378645,715.329045 1107.195662,699.399510 1088.002276,648.948555 1046.827382,665.413025 1065.378645,715.329045"/>
    <poly id="150387783" type="landuse.residential" color="235,235,227" fill="1" layer="-3.00" shape="1824.096638,1250.052644 1726.407418,1213.956650 1644.492543,1183.694580 1637.563874,1182.532320 1628.722937,1182.904067 1621.616257,1184.976972 1616.085286,1188.058144 1610.250807,1192.958832 1605.546981,1199.427163 1590.586807,1241.018079 1570.554023,1296.626924 1567.950959,1303.857215 1682.906432,1346.332375 1761.422157,1375.353036 1781.921357,1378.623705 1785.986951,1379.277219 1789.003179,1379.321608 1796.596123,1379.450244 1806.856701,1351.684140 1822.168894,1345.444714 1843.720954,1363.447023 1854.092473,1358.285209 1893.830982,1295.929421 1904.549290,1279.111347 1824.096638,1250.052644"/>
    <poly id="150387791" type="landuse.residential" color="235,235,227" fill="1" layer="-3.00" shape="1726.407418,1213.956650 1824.096638,1250.052644 1904.549290,1279.111347 1946.291148,1211.072804 1883.612797,1157.257055 1913.418639,1124.220268 1936.066307,1139.650210 1943.988180,1158.047146 1965.954650,1174.321583 2014.187777,1093.405135 1990.442773,1069.608131 2036.629824,985.048479 1997.938469,936.125487 1987.828670,944.897499 1963.867659,927.762697 1936.449084,919.845517 1917.435448,918.437822 1885.944137,901.287061 1874.408587,875.167219 1876.710832,857.481811 1906.123241,804.061270 1868.794921,754.663773 1838.017725,791.689282 1789.167472,849.949514 1747.983204,901.251208 1752.047638,904.497616 1739.631914,920.461302 1741.862893,938.141116 1829.707579,1002.211277 1793.966187,1058.498220 1735.782579,1143.351374 1713.718708,1176.030830 1726.407418,1213.956650"/>
    <poly id="154946358" type="landuse.industrial" color="209,209,204" fill="1" layer="-3.00" shape="2718.053351,1570.143460 2709.859737,1570.803406 2705.925208,1526.293535 2701.672249,1522.975983 2698.883138,1498.685917 2766.595385,1506.411713 2808.956402,1506.521659 2811.413450,1506.522908 2858.421528,1504.705574 2849.276716,1532.011804 2840.443749,1551.778634 2841.746195,1578.745370 2795.366552,1585.059400 2793.379848,1566.170470 2771.512944,1568.500957 2763.517203,1566.315559 2718.053351,1570.143460"/>
    <poly id="154946358#1" type="man_made.works" color="255,230,230" fill="1" layer="-1.00" shape="2718.053351,1570.143460 2709.859737,1570.803406 2705.925208,1526.293535 2701.672249,1522.975983 2698.883138,1498.685917 2766.595385,1506.411713 2808.956402,1506.521659 2811.413450,1506.522908 2858.421528,1504.705574 2849.276716,1532.011804 2840.443749,1551.778634 2841.746195,1578.745370 2795.366552,1585.059400 2793.379848,1566.170470 2771.512944,1568.500957 2763.517203,1566.315559 2718.053351,1570.143460"/>
    <poly id="154946373" type="building.industrial" color="255,230,230" fill="1" layer="-1.00" shape="2912.629860,1502.522181 2942.968469,1497.367886 2945.830964,1514.125401 2915.492460,1519.279676 2912.629860,1502.522181"/>
    <poly id="154946374" type="building.commercial" color="255,230,230" fill="1" layer="-1.00" shape="2465.089885,1609.969253 2471.932867,1598.310994 2484.033238,1577.736110 2493.312735,1583.161024 2495.834468,1584.643417 2476.891059,1616.876514 2465.089885,1609.969253"/>
    <poly id="154946375" type="building.industrial" color="255,230,230" fill="1" layer="-1.00" shape="2889.392740,1504.481588 2894.494373,1535.058085 2873.607236,1538.530360 2868.505680,1507.942762 2889.392740,1504.481588"/>
    <poly id="154946408" type="waterway.stream" color="181,209,209" fill="0" layer="-4.00" shape="2843.077661,1549.357150 2861.170496,1551.252317 2867.228359,1550.675243 2872.265082,1549.044179 2875.789432,1545.148070 2881.019927,1542.663720 2885.336412,1542.566127 2889.255726,1545.399098 2895.420514,1548.273937 2904.046839,1548.434775 2917.222002,1545.575560 2922.908470,1546.193527 2929.974463,1547.015289 2939.231357,1550.804767"/>
    <poly id="167357912" type="amenity.cafe" color="237,199,199" fill="1" layer="-1.00" shape="1188.736867,1207.114603 1192.919356,1195.617371 1209.424149,1201.594624 1205.241623,1213.091842 1188.736867,1207.114603"/>
    <poly id="167357912#1" type="building.yes" color="255,230,230" fill="1" layer="-1.00" shape="1188.736867,1207.114603 1192.919356,1195.617371 1209.424149,1201.594624 1205.241623,1213.091842 1188.736867,1207.114603"/>
    <poly id="167357912#2" type="landuse.brownfield" color="194,194,130" fill="1" layer="-3.00" shape="1188.736867,1207.114603 1192.919356,1195.617371 1209.424149,1201.594624 1205.241623,1213.091842 1188.736867,1207.114603"/>
    <poly id="178661962" type="man_made.reservoir_covered" color="255,230,230" fill="1" layer="-1.00" shape="2500.747099,900.313101 2490.700733,919.457103 2491.516646,936.910784 2504.727091,982.638574 2599.434081,956.542062 2577.273960,877.673651 2557.799650,882.620369 2555.740985,875.693529 2516.138143,889.603642 2512.402078,896.734522 2500.747099,900.313101"/>
    <poly id="179058353" type="building.residential" color="255,230,230" fill="1" layer="-1.00" shape="2703.846032,1692.583571 2698.731734,1661.216936 2718.974065,1658.021245 2720.470077,1667.185700 2711.643171,1668.612860 2713.618123,1680.713057 2727.545650,1678.457138 2726.227121,1670.375462 2736.124494,1668.767936 2739.074689,1686.862380 2703.846032,1692.583571"/>
    <poly id="241944953" type="natural.wood" color="140,196,107" fill="1" layer="-4.00" shape="2625.713949,1328.403865 2628.059418,1332.286835 2648.169184,1315.032870 2672.115071,1297.672260 2694.329286,1281.336781 2713.007388,1268.118408 2738.708952,1250.957718 2769.132081,1233.551195 2811.527915,1215.299478 2850.252809,1200.685577 2885.280395,1188.996679 2939.481603,1172.557558 3006.455940,1153.352715 3006.971154,1151.514975 3005.088101,1146.516446 2927.540440,1165.357192 2843.168794,1184.183353 2778.366972,1201.761652 2743.715476,1221.582247 2660.856451,1281.749290 2623.688385,1323.258178 2625.713949,1328.403865"/>
    <poly id="26446485" type="landuse.grass" color="194,194,130" fill="1" layer="-3.00" shape="908.664554,1036.022336 913.845112,1051.796784 926.366358,1072.167515 947.235170,1084.533204 1081.928559,1128.243316 1093.190168,1125.544349 1101.607777,1117.329375 1102.217181,1101.270908 1065.001591,990.875463 1045.021489,931.596495 1036.207873,918.893861 1023.250546,911.958135 1006.532379,913.277994 922.579033,995.111449 910.248584,1020.671586 908.664554,1036.022336"/>
    <poly id="27246900" type="landuse.retail" color="194,194,130" fill="1" layer="-3.00" shape="2948.441487,1389.722318 2973.121735,1419.896297 2990.730883,1427.614345 2995.888570,1427.276591 2996.189587,1431.266270 3121.642787,1428.345660 3131.031884,1441.630741 3176.975677,1460.841011 3181.843173,1461.577517 3276.526390,1465.675397 3297.284032,1414.638493 3316.874133,1371.091662 3345.406909,1341.801385 3362.348103,1301.844170 3367.396185,1173.803135 3178.916749,1189.048393 3065.677069,1204.682120 3049.567954,1206.907462 2999.424941,1218.747014 2984.411149,1222.295075 2917.263042,1238.158369 2901.600899,1241.861532 2910.072020,1243.310394 2920.867207,1247.306556 2930.379975,1253.304242 2938.748674,1259.536568 2944.593521,1268.281423 2947.619658,1276.628717 2948.310973,1286.891104 2947.001740,1302.691629 2945.560299,1323.108081 2944.749706,1337.604728 2941.922259,1370.170077 2943.875600,1379.521198 2948.441487,1389.722318"/>
    <poly id="29056063" type="landuse.grass" color="194,194,130" fill="1" layer="-3.00" shape="540.358083,1484.527664 705.355197,1439.548611 663.370974,1363.590439 654.945695,1358.151359 617.913332,1353.327932 608.576306,1356.741798 526.191871,1430.252993 540.358083,1484.527664"/>
    <poly id="29719972" type="amenity.parking" color="184,184,179" fill="1" layer="-1.00" shape="2608.118482,1439.018235 2614.232412,1409.551936 2634.873093,1395.256878 2732.393842,1413.674483 2793.097018,1429.249445 2799.375887,1477.653573 2796.225586,1480.566255 2766.692150,1478.213525 2720.588317,1466.471668 2718.966864,1472.896112 2717.515876,1478.656010 2679.982513,1470.434871 2668.055712,1472.049304 2614.354964,1458.965353 2615.082081,1455.640274 2616.133645,1450.807731 2618.164519,1441.486290 2608.820196,1439.187075 2608.118482,1439.018235"/>
    <poly id="343772105" type="building.yes" color="255,230,230" fill="1" layer="-1.00" shape="672.376994,1552.070616 654.627819,1482.272914 778.174398,1450.587853 779.446554,1455.974937 786.320524,1453.974440 785.243717,1449.436674 796.698685,1446.918592 794.490205,1439.411178 821.562900,1433.315735 843.586598,1523.646160 784.151827,1537.699308 784.942096,1541.330452 763.497835,1545.848050 765.063924,1553.544079 681.494349,1555.652726 672.376994,1552.070616"/>
    <poly id="343772108" type="building.yes" color="255,230,230" fill="1" layer="-1.00" shape="850.789358,1523.844063 853.364353,1534.730123 883.087803,1527.737388 884.231661,1532.565743 896.688722,1529.632149 892.969771,1513.928832 850.789358,1523.844063"/>
    <poly id="343772110" type="building.yes" color="255,230,230" fill="1" layer="-1.00" shape="907.128752,1529.666541 903.331031,1511.057236 893.387059,1513.079537 897.185020,1531.677709 907.128752,1529.666541"/>
    <poly id="343772251" type="building.yes" color="255,230,230" fill="1" layer="-1.00" shape="901.379243,1574.443127 901.637306,1546.537493 937.814345,1546.873963 937.621496,1567.936746 923.007112,1567.803958 922.941704,1574.646809 901.379243,1574.443127"/>
    <poly id="343772838" type="building.yes" color="255,230,230" fill="1" layer="-1.00" shape="772.422436,1221.402849 759.739791,1187.797803 778.126411,1180.887542 790.808947,1214.492639 772.422436,1221.402849"/>
    <poly id="343772839" type="building.yes" color="255,230,230" fill="1" layer="-1.00" shape="778.126411,1180.887542 797.719943,1173.543041 810.533464,1207.183963 790.808947,1214.492639 778.126411,1180.887542"/>
    <poly id="343772840" type="building.yes" color="255,230,230" fill="1" layer="-1.00" shape="797.719943,1173.543041 817.251935,1165.963802 831.359558,1201.609208 811.485556,1209.527146 810.533464,1207.183963 797.719943,1173.543041"/>
    <poly id="343772841" type="building.yes" color="255,230,230" fill="1" layer="-1.00" shape="817.251935,1165.963802 839.120823,1157.759467 854.335396,1195.917881 832.473443,1204.111139 831.359558,1201.609208 817.251935,1165.963802"/>
    <poly id="343772846" type="building.supermarket" color="255,230,230" fill="1" layer="-1.00" shape="601.846606,1251.355171 622.077775,1196.157854 613.673685,1193.523625 616.465036,1185.639681 617.957108,1185.822568 622.650610,1173.677561 643.663562,1179.934959 641.489783,1186.094057 684.493858,1200.596640 682.598257,1204.857801 693.137533,1208.532519 688.830151,1217.546238 696.081190,1219.825796 694.365180,1223.266707 711.838284,1228.547561 708.848479,1237.919065 716.027242,1253.596061 709.041137,1272.988483 697.672065,1269.309774 695.410503,1275.222426 677.945930,1269.118275 674.983299,1276.999073 601.846606,1251.355171"/>
    <poly id="343772846#1" type="shop.supermarket" color="237,199,255" fill="1" layer="-1.00" shape="601.846606,1251.355171 622.077775,1196.157854 613.673685,1193.523625 616.465036,1185.639681 617.957108,1185.822568 622.650610,1173.677561 643.663562,1179.934959 641.489783,1186.094057 684.493858,1200.596640 682.598257,1204.857801 693.137533,1208.532519 688.830151,1217.546238 696.081190,1219.825796 694.365180,1223.266707 711.838284,1228.547561 708.848479,1237.919065 716.027242,1253.596061 709.041137,1272.988483 697.672065,1269.309774 695.410503,1275.222426 677.945930,1269.118275 674.983299,1276.999073 601.846606,1251.355171"/>
    <poly id="359282551" type="building.yes" color="255,230,230" fill="1" layer="-1.00" shape="1477.924340,1240.720049 1474.623889,1250.063152 1491.399787,1255.957359 1500.458639,1259.139364 1503.759137,1249.796278 1477.924340,1240.720049"/>
    <poly id="359282551#1" type="shop.convenience" color="237,199,255" fill="1" layer="-1.00" shape="1477.924340,1240.720049 1474.623889,1250.063152 1491.399787,1255.957359 1500.458639,1259.139364 1503.759137,1249.796278 1477.924340,1240.720049"/>
    <poly id="359282552" type="amenity.parking" color="184,184,179" fill="1" layer="-1.00" shape="1474.149448,1250.788936 1472.204559,1256.261906 1497.920742,1265.335930 1499.859073,1259.862850 1474.149448,1250.788936"/>
    <poly id="38128407" type="leisure.pitch" color="207,245,201" fill="1" layer="-2.00" shape="1412.043019,1072.038782 1460.006216,1086.928745 1468.465840,1088.319122 1489.250962,1086.852945 1492.400622,1083.583275 1523.480348,1001.089884 1448.614565,971.639573 1412.043019,1072.038782"/>
    <poly id="38128407#1" type="sport.cricket" color="79,230,125" fill="1" layer="-2.00" shape="1412.043019,1072.038782 1460.006216,1086.928745 1468.465840,1088.319122 1489.250962,1086.852945 1492.400622,1083.583275 1523.480348,1001.089884 1448.614565,971.639573 1412.043019,1072.038782"/>
    <poly id="38128411" type="leisure.park" color="207,245,201" fill="1" layer="-2.00" shape="1793.966187,1058.498220 1673.233582,1011.351626 1680.462194,997.284441 1732.701683,887.482313 1747.983204,901.251208 1752.047638,904.497616 1739.631914,920.461302 1741.862893,938.141116 1829.707579,1002.211277 1793.966187,1058.498220"/>
    <poly id="38128412" type="leisure.pitch" color="207,245,201" fill="1" layer="-2.00" shape="1696.461489,990.990438 1729.462813,1008.067537 1757.933203,965.245456 1723.314001,942.273656 1696.461489,990.990438"/>