<?xml version="1.0" encoding="UTF-8"?>

<!-- generated on 2022-03-10 11:17:51 by Eclipse SUMO duarouter Version 1.12.0
<configuration xmlns:xsi="http://www.w3.org/2001/XMLSchema-instance" xsi:noNamespaceSchemaLocation="http://sumo.dlr.de/xsd/duarouterConfiguration.xsd">

    <input>
        <net-file value="C:\Users\elamb\Sumo\2022-03-10-11-17-40\osm.net.xml"/>
        <route-files value="C:\Users\elamb\Sumo\2022-03-10-11-17-40\osm.passenger.trips.xml"/>
    </input>

    <output>
        <output-file value="C:\Users\elamb\Sumo\2022-03-10-11-17-40\osm.passenger.trips.xml.tmp"/>
        <write-trips value="true"/>
    </output>

    <time>
        <begin value="0"/>
        <end value="3600"/>
    </time>

    <report>
        <no-warnings value="true"/>
        <ignore-errors value="true"/>
        <no-step-log value="true"/>
    </report>

</configuration>
-->

<routes xmlns:xsi="http://www.w3.org/2001/XMLSchema-instance" xsi:noNamespaceSchemaLocation="http://sumo.dlr.de/xsd/routes_file.xsd">
    <vType id="veh_passenger" vClass="passenger"/>
    <trip id="veh0" type="veh_passenger" depart="0.00" departLane="best" from="38300057#0" to="-150387776"/>
    <trip id="veh1" type="veh_passenger" depart="4.61" departLane="best" from="-57400731#0" to="-38508047#2"/>
    <trip id="veh2" type="veh_passenger" depart="9.21" departLane="best" from="40916616#0" to="384467498#2"/>
    <trip id="veh4" type="veh_passenger" depart="18.42" departLane="best" from="-154946349#1" to="-38300057#0"/>
    <trip id="veh5" type="veh_passenger" depart="23.03" departLane="best" from="384392306#2" to="38128396"/>
    <trip id="veh6" type="veh_passenger" depart="27.63" departLane="best" from="-38508032" to="38128431#2"/>
    <trip id="veh7" type="veh_passenger" depart="32.24" departLane="best" from="4769351#8" to="-142725085#5"/>
    <trip id="veh8" type="veh_passenger" depart="36.84" departLane="best" from="4769351#4" to="384467504#1"/>
    <trip id="veh9" type="veh_passenger" depart="41.45" departLane="best" from="-90200380#7" to="-38128426#3"/>
    <trip id="veh10" type="veh_passenger" depart="46.06" departLane="best" from="8065751#4" to="-90200380#5"/>
    <trip id="veh11" type="veh_passenger" depart="50.66" departLane="best" from="-37982501#2" to="-38128383#1"/>
    <trip id="veh12" type="veh_passenger" depart="55.27" departLane="best" from="534916585#1" to="38128444#3"/>
    <trip id="veh13" type="veh_passenger" depart="59.87" departLane="best" from="4769351#6" to="4326325#0"/>
    <trip id="veh14" type="veh_passenger" depart="64.48" departLane="best" from="38128385" to="90200372#4"/>
    <trip id="veh15" type="veh_passenger" depart="69.08" departLane="best" from="143317261#1" to="38128400"/>
    <trip id="veh17" type="veh_passenger" depart="78.29" departLane="best" from="54653897#0" to="38128426#1"/>
    <trip id="veh18" type="veh_passenger" depart="82.90" departLane="best" from="384467503#3" to="-154946370#4"/>
    <trip id="veh20" type="veh_passenger" depart="92.11" departLane="best" from="-26442127#3" to="-38508057"/>
    <trip id="veh21" type="veh_passenger" depart="96.72" departLane="best" from="-38128383#4" to="-686936940#12"/>
    <trip id="veh22" type="veh_passenger" depart="101.32" departLane="best" from="38300052" to="142725085#4"/>
    <trip id="veh23" type="veh_passenger" depart="105.93" departLane="best" from="143317252" to="-384467502#2"/>
    <trip id="veh24" type="veh_passenger" depart="110.53" departLane="best" from="-498103891#5" to="744686036#4"/>
    <trip id="veh25" type="veh_passenger" depart="115.14" departLane="best" from="384392306#2" to="38128450#1"/>
    <trip id="veh26" type="veh_passenger" depart="119.74" departLane="best" from="-38128436#0" to="4326325#0"/>
    <trip id="veh27" type="veh_passenger" depart="124.35" departLane="best" from="-38128429#2" to="143317263"/>
    <trip id="veh28" type="veh_passenger" depart="128.96" departLane="best" from="96742261#2" to="384392307#0"/>
    <trip id="veh29" type="veh_passenger" depart="133.56" departLane="best" from="38128401#1" to="384467499#0"/>
    <trip id="veh30" type="veh_passenger" depart="138.17" departLane="best" from="534916585#0" to="4769209#2"/>
    <trip id="veh31" type="veh_passenger" depart="142.77" departLane="best" from="-38508049#0" to="-154946362#0"/>
    <trip id="veh32" type="veh_passenger" depart="147.38" departLane="best" from="-792838976#2" to="-498103891#6"/>
    <trip id="veh33" type="veh_passenger" depart="151.98" departLane="best" from="-384467502#2" to="744686040#10"/>
    <trip id="veh34" type="veh_passenger" depart="156.59" departLane="best" from="54729945#2" to="-792838976#3"/>
    <trip id="veh35" type="veh_passenger" depart="161.20" departLane="best" from="384392308#1" to="150387790#2"/>
    <trip id="veh36" type="veh_passenger" depart="165.80" departLane="best" from="686936940#12" to="23777646#0"/>
    <trip id="veh37" type="veh_passenger" depart="170.41" departLane="best" from="-498103891#3" to="-4769351#0"/>
    <trip id="veh38" type="veh_passenger" depart="175.01" departLane="best" from="38128404" to="-498103891#3"/>
    <trip id="veh39" type="veh_passenger" depart="179.62" departLane="best" from="38128427#1" to="6016588#6"/>
    <trip id="veh40" type="veh_passenger" depart="184.22" departLane="best" from="154946349#2" to="-38508032"/>
    <trip id="veh42" type="veh_passenger" depart="193.43" departLane="best" from="-37982501#0" to="-154946370#5"/>
    <trip id="veh43" type="veh_passenger" depart="198.04" departLane="best" from="-38128384#5" to="38300057#0"/>
    <trip id="veh44" type="veh_passenger" depart="202.65" departLane="best" from="4769233#0" to="179058359#0"/>
    <trip id="veh46" type="veh_passenger" depart="211.86" departLane="best" from="96783578#0" to="38128384#1"/>
    <trip id="veh47" type="veh_passenger" depart="216.46" departLane="best" from="90200372#2" to="54653902#1"/>
    <trip id="veh48" type="veh_passenger" depart="221.07" departLane="best" from="-143317253#1" to="40916610#2"/>
    <trip id="veh49" type="veh_passenger" depart="225.67" departLane="best" from="384467498#0" to="38128388"/>
    <trip id="veh50" type="veh_passenger" depart="230.28" departLane="best" from="-498103891#5" to="384392307#1"/>
    <trip id="veh52" type="veh_passenger" depart="239.49" departLane="best" from="23111989#3" to="792838976#3"/>
    <trip id="veh53" type="veh_passenger" depart="244.10" departLane="best" from="352764043#1" to="-38128444#2"/>
    <trip id="veh54" type="veh_passenger" depart="248.70" departLane="best" from="686936940#1" to="54729971#0"/>
    <trip id="veh55" type="veh_passenger" depart="253.31" departLane="best" from="-744686036#4" to="384392307#0"/>
    <trip id="veh56" type="veh_passenger" depart="257.91" departLane="best" from="38128447" to="-38128426#0"/>
    <trip id="veh57" type="veh_passenger" depart="262.52" departLane="best" from="4769187#1" to="38128394#1"/>
    <trip id="veh58" type="veh_passenger" depart="267.12" departLane="best" from="4769209#0" to="38128384#3"/>
    <trip id="veh59" type="veh_passenger" depart="271.73" departLane="best" from="-142725082" to="-90200364#2"/>
    <trip id="veh60" type="veh_passenger" depart="276.33" departLane="best" from="-143317262#0" to="690329769#1"/>
    <trip id="veh61" type="veh_passenger" depart="280.94" departLane="best" from="54729971#0" to="534916576"/>
    <trip id="veh62" type="veh_passenger" depart="285.55" departLane="best" from="-744686040#15" to="-179123127#4"/>
    <trip id="veh63" type="veh_passenger" depart="290.15" departLane="best" from="54729971#0" to="744686040#2"/>
    <trip id="veh64" type="veh_passenger" depart="294.76" departLane="best" from="-27431234#3" to="29719971#1"/>
    <trip id="veh65" type="veh_passenger" depart="299.36" departLane="best" from="-23111989#2" to="4769208#0"/>
    <trip id="veh66" type="veh_passenger" depart="303.97" departLane="best" from="4769187#2" to="-38128399#1"/>
    <trip id="veh68" type="veh_passenger" depart="313.18" departLane="best" from="-498103891#3" to="54729971#1"/>
    <trip id="veh69" type="veh_passenger" depart="317.78" departLane="best" from="179058357" to="-384467503#1"/>
    <trip id="veh70" type="veh_passenger" depart="322.39" departLane="best" from="38128388" to="4326325#0"/>
    <trip id="veh71" type="veh_passenger" depart="327.00" departLane="best" from="-38300057#1" to="-744686040#8"/>
    <trip id="veh72" type="veh_passenger" depart="331.60" departLane="best" from="96783559" to="384392310#0"/>
    <trip id="veh74" type="veh_passenger" depart="340.81" departLane="best" from="-38128394#6" to="-38508047#3"/>
    <trip id="veh75" type="veh_passenger" depart="345.42" departLane="best" from="-90200380#5" to="38128431#0"/>
    <trip id="veh76" type="veh_passenger" depart="350.02" departLane="best" from="-38508049#1" to="-38508033"/>
    <trip id="veh77" type="veh_passenger" depart="354.63" departLane="best" from="-23111989#4" to="384392305#1"/>
    <trip id="veh78" type="veh_passenger" depart="359.23" departLane="best" from="-38508049#0" to="609509715#0"/>
    <trip id="veh79" type="veh_passenger" depart="363.84" departLane="best" from="54653897#0" to="-23111989#4"/>
    <trip id="veh80" type="veh_passenger" depart="368.45" departLane="best" from="-40916610#2" to="384467498#0"/>
    <trip id="veh81" type="veh_passenger" depart="373.05" departLane="best" from="-384467503#3" to="-38128401#3"/>
    <trip id="veh82" type="veh_passenger" depart="377.66" departLane="best" from="744686036#3" to="38128423#0"/>
    <trip id="veh83" type="veh_passenger" depart="382.26" departLane="best" from="4769351#6" to="-38128456"/>
    <trip id="veh85" type="veh_passenger" depart="391.47" departLane="best" from="179058357" to="26442127#5"/>
    <trip id="veh86" type="veh_passenger" depart="396.08" departLane="best" from="38508057" to="384467498#1"/>
    <trip id="veh87" type="veh_passenger" depart="400.69" departLane="best" from="943972926#0" to="-38128383#2"/>
    <trip id="veh89" type="veh_passenger" depart="409.90" departLane="best" from="54653897#0" to="-4769351#11"/>
    <trip id="veh90" type="veh_passenger" depart="414.50" departLane="best" from="-38128450#5" to="23111989#0"/>
    <trip id="veh91" type="veh_passenger" depart="419.11" departLane="best" from="179058351" to="-686936940#12"/>
    <trip id="veh92" type="veh_passenger" depart="423.71" departLane="best" from="-4769351#11" to="686936940#9"/>
    <trip id="veh93" type="veh_passenger" depart="428.32" departLane="best" from="22880047#2" to="54653902#1"/>
    <trip id="veh94" type="veh_passenger" depart="432.92" departLane="best" from="38128397#2" to="-179058357"/>
    <trip id="veh95" type="veh_passenger" depart="437.53" departLane="best" from="96783601#1" to="534916585#0"/>
    <trip id="veh97" type="veh_passenger" depart="446.74" departLane="best" from="534916585#2" to="-38128431#2"/>
    <trip id="veh98" type="veh_passenger" depart="451.35" departLane="best" from="29719968#5" to="-384467503#3"/>
    <trip id="veh100" type="veh_passenger" depart="460.56" departLane="best" from="143317262#0" to="943972926#1"/>
    <trip id="veh101" type="veh_passenger" depart="465.16" departLane="best" from="-498103891#3" to="4769233#0"/>
    <trip id="veh102" type="veh_passenger" depart="469.77" departLane="best" from="23111989#5" to="179058359#1"/>
    <trip id="veh103" type="veh_passenger" depart="474.37" departLane="best" from="8065751#4" to="96783559"/>
    <trip id="veh104" type="veh_passenger" depart="478.98" departLane="best" from="38128401#0" to="40916607#0"/>
    <trip id="veh105" type="veh_passenger" depart="483.59" departLane="best" from="-38128426#2" to="-744686036#3"/>
    <trip id="veh106" type="veh_passenger" depart="488.19" departLane="best" from="90200364#4" to="38128426#3"/>
    <trip id="veh107" type="veh_passenger" depart="492.80" departLane="best" from="38128394#1" to="457725785"/>
    <trip id="veh108" type="veh_passenger" depart="497.40" departLane="best" from="-179123127#3" to="38128429#0"/>
    <trip id="veh109" type="veh_passenger" depart="502.01" departLane="best" from="352764043#3" to="54653897#0"/>
    <trip id="veh110" type="veh_passenger" depart="506.61" departLane="best" from="-38128427#0" to="822255859#1"/>
    <trip id="veh111" type="veh_passenger" depart="511.22" departLane="best" from="-26442127#3" to="-38128450#2"/>
    <trip id="veh112" type="veh_passenger" depart="515.82" departLane="best" from="38128432#0" to="384467498#2"/>
    <trip id="veh113" type="veh_passenger" depart="520.43" departLane="best" from="-40916607#0" to="-38128394#5"/>
    <trip id="veh114" type="veh_passenger" depart="525.04" departLane="best" from="57400731#0" to="-4769351#0"/>
    <trip id="veh116" type="veh_passenger" depart="534.25" departLane="best" from="154946371#0" to="38128427#3"/>
    <trip id="veh117" type="veh_passenger" depart="538.85" departLane="best" from="38128383#0" to="744686036#2"/>
    <trip id="veh118" type="veh_passenger" depart="543.46" departLane="best" from="-384392308#1" to="38508057"/>
    <trip id="veh119" type="veh_passenger" depart="548.06" departLane="best" from="-40916610#2" to="150387790#2"/>
    <trip id="veh120" type="veh_passenger" depart="552.67" departLane="best" from="384392312#0" to="-744686036#8"/>
    <trip id="veh121" type="veh_passenger" depart="557.27" departLane="best" from="-792838976#3" to="4769187#0"/>
    <trip id="veh122" type="veh_passenger" depart="561.88" departLane="best" from="-498103891#3" to="744686036#1"/>
    <trip id="veh123" type="veh_passenger" depart="566.49" departLane="best" from="54729971#1" to="57400726#1"/>
    <trip id="veh124" type="veh_passenger" depart="571.09" departLane="best" from="142725087#2" to="-38128427#1"/>
    <trip id="veh125" type="veh_passenger" depart="575.70" departLane="best" from="534916561" to="38508033"/>
    <trip id="veh126" type="veh_passenger" depart="580.30" departLane="best" from="38128450#1" to="96742251"/>
    <trip id="veh127" type="veh_passenger" depart="584.91" departLane="best" from="384392307#1" to="-142725087#0"/>
    <trip id="veh128" type="veh_passenger" depart="589.51" departLane="best" from="4769353#1" to="-744686036#7"/>
    <trip id="veh129" type="veh_passenger" depart="594.12" departLane="best" from="384392311#0" to="744686036#7"/>
    <trip id="veh130" type="veh_passenger" depart="598.72" departLane="best" from="-38128401#4" to="-38128394#0"/>
    <trip id="veh131" type="veh_passenger" depart="603.33" departLane="best" from="-38128384#2" to="38128401#0"/>
    <trip id="veh132" type="veh_passenger" depart="607.94" departLane="best" from="-57400726#1" to="38128446#1"/>
    <trip id="veh133" type="veh_passenger" depart="612.54" departLane="best" from="38508047#0" to="-384392308#1"/>
    <trip id="veh135" type="veh_passenger" depart="621.75" departLane="best" from="29719971#1" to="609509715#0"/>
    <trip id="veh136" type="veh_passenger" depart="626.36" departLane="best" from="534916585#1" to="-37982501#2"/>
    <trip id="veh137" type="veh_passenger" depart="630.96" departLane="best" from="179058357" to="-686936940#1"/>
    <trip id="veh138" type="veh_passenger" depart="635.57" departLane="best" from="-142725085#0" to="4769209#0"/>
    <trip id="veh139" type="veh_passenger" depart="640.18" departLane="best" from="38300053#2" to="-498103891#1"/>
    <trip id="veh140" type="veh_passenger" depart="644.78" departLane="best" from="4326325#0" to="38128399#1"/>
    <trip id="veh141" type="veh_passenger" depart="649.39" departLane="best" from="179123127#1" to="-142725087#2"/>
    <trip id="veh142" type="veh_passenger" depart="653.99" departLane="best" from="-23298885#3" to="57400731#1"/>
    <trip id="veh144" type="veh_passenger" depart="663.20" departLane="best" from="-38128422" to="-38128399#0"/>
    <trip id="veh145" type="veh_passenger" depart="667.81" departLane="best" from="-744686040#15" to="6016588#6"/>
    <trip id="veh147" type="veh_passenger" depart="677.02" departLane="best" from="-4769351#10" to="-38128383#6"/>
    <trip id="veh149" type="veh_passenger" depart="686.23" departLane="best" from="54653897#1" to="90200380#1"/>
    <trip id="veh150" type="veh_passenger" depart="690.84" departLane="best" from="4769352#0" to="57400727"/>
    <trip id="veh151" type="veh_passenger" depart="695.44" departLane="best" from="-150387776" to="4326327#0"/>
    <trip id="veh152" type="veh_passenger" depart="700.05" departLane="best" from="-90200372#5" to="694559935#0"/>
    <trip id="veh154" type="veh_passenger" depart="709.26" departLane="best" from="4769352#0" to="-498103891#6"/>
    <trip id="veh155" type="veh_passenger" depart="713.86" departLane="best" from="4769209#3" to="-38128384#4"/>
    <trip id="veh156" type="veh_passenger" depart="718.47" departLane="best" from="54654007#0" to="54653902#0"/>
    <trip id="veh157" type="veh_passenger" depart="723.08" departLane="best" from="-38508047#0" to="498103891#3"/>
    <trip id="veh158" type="veh_passenger" depart="727.68" departLane="best" from="23777646#0" to="-744686040#14"/>
    <trip id="veh159" type="veh_passenger" depart="732.29" departLane="best" from="4769233#2" to="-38508047#6"/>
    <trip id="veh160" type="veh_passenger" depart="736.89" departLane="best" from="-150385355#1" to="-38128459"/>
    <trip id="veh162" type="veh_passenger" depart="746.10" departLane="best" from="90200364#2" to="-686936940#13"/>
    <trip id="veh163" type="veh_passenger" depart="750.71" departLane="best" from="384392305#1" to="154946350#1"/>
    <trip id="veh164" type="veh_passenger" depart="755.31" departLane="best" from="90200380#7" to="38128387"/>
    <trip id="veh165" type="veh_passenger" depart="759.92" departLane="best" from="744686036#8" to="-38128394#0"/>
    <trip id="veh166" type="veh_passenger" depart="764.53" departLane="best" from="90200372#1" to="-38128444#2"/>
    <trip id="veh167" type="veh_passenger" depart="769.13" departLane="best" from="837266987" to="-498103891#5"/>
    <trip id="veh169" type="veh_passenger" depart="778.34" departLane="best" from="38508057" to="-792838976#2"/>
    <trip id="veh170" type="veh_passenger" depart="782.95" departLane="best" from="38128444#3" to="37982501#1"/>
    <trip id="veh171" type="veh_passenger" depart="787.55" departLane="best" from="150387778#0" to="38128426#1"/>
    <trip id="veh172" type="veh_passenger" depart="792.16" departLane="best" from="-4769351#4" to="38508047#4"/>
    <trip id="veh174" type="veh_passenger" depart="801.37" departLane="best" from="38128387" to="40916607#1"/>
    <trip id="veh175" type="veh_passenger" depart="805.98" departLane="best" from="4326325#0" to="384467498#0"/>
    <trip id="veh176" type="veh_passenger" depart="810.58" departLane="best" from="142725085#1" to="-23111989#3"/>
    <trip id="veh177" type="veh_passenger" depart="815.19" departLane="best" from="384392311#0" to="-90200372#4"/>
    <trip id="veh178" type="veh_passenger" depart="819.79" departLane="best" from="-792838976#0" to="544650154#1"/>
    <trip id="veh179" type="veh_passenger" depart="824.40" departLane="best" from="-744686040#3" to="154946368#3"/>
    <trip id="veh181" type="veh_passenger" depart="833.61" departLane="best" from="-38128399#0" to="179058351"/>
    <trip id="veh182" type="veh_passenger" depart="838.21" departLane="best" from="744686036#9" to="384467498#2"/>
    <trip id="veh184" type="veh_passenger" depart="847.43" departLane="best" from="-744686036#7" to="38128397#2"/>
    <trip id="veh186" type="veh_passenger" depart="856.64" departLane="best" from="179123127#3" to="38128426#4"/>
    <trip id="veh187" type="veh_passenger" depart="861.24" departLane="best" from="384392308#0" to="26442127#3"/>
    <trip id="veh189" type="veh_passenger" depart="870.45" departLane="best" from="4769233#2" to="-38128432#1"/>
    <trip id="veh190" type="veh_passenger" depart="875.06" departLane="best" from="-27431234#2" to="37999801#0"/>
    <trip id="veh191" type="veh_passenger" depart="879.67" departLane="best" from="38128483#3" to="-90200380#4"/>
    <trip id="veh192" type="veh_passenger" depart="884.27" departLane="best" from="4769353#2" to="461375617"/>
    <trip id="veh193" type="veh_passenger" depart="888.88" departLane="best" from="384392312#0" to="-38508047#3"/>
    <trip id="veh194" type="veh_passenger" depart="893.48" departLane="best" from="-38300053#3" to="-150385355#2"/>
    <trip id="veh195" type="veh_passenger" depart="898.09" departLane="best" from="-40916616#4" to="27431234#0"/>
    <trip id="veh196" type="veh_passenger" depart="902.69" departLane="best" from="534916585#2" to="-23298885#0"/>
    <trip id="veh197" type="veh_passenger" depart="907.30" departLane="best" from="154946370#0" to="384392305#1"/>
    <trip id="veh198" type="veh_passenger" depart="911.90" departLane="best" from="-38128459" to="384467504#1"/>
    <trip id="veh199" type="veh_passenger" depart="916.51" departLane="best" from="352764035#1" to="-40916616#4"/>
    <trip id="veh200" type="veh_passenger" depart="921.12" departLane="best" from="384392309#0" to="-142725085#4"/>
    <trip id="veh202" type="veh_passenger" depart="930.33" departLane="best" from="-38128384#2" to="179123127#0"/>
    <trip id="veh203" type="veh_passenger" depart="934.93" departLane="best" from="-38128439#2" to="8065751#4"/>
    <trip id="veh204" type="veh_passenger" depart="939.54" departLane="best" from="37999801#1" to="-179058357"/>
    <trip id="veh205" type="veh_passenger" depart="944.14" departLane="best" from="-4769351#10" to="544650154#1"/>
    <trip id="veh206" type="veh_passenger" depart="948.75" departLane="best" from="23298885#0" to="4769351#8"/>
    <trip id="veh207" type="veh_passenger" depart="953.35" departLane="best" from="384392311#1" to="96742259"/>
    <trip id="veh208" type="veh_passenger" depart="957.96" departLane="best" from="38128432#0" to="744686040#7"/>
    <trip id="veh209" type="veh_passenger" depart="962.57" departLane="best" from="57400731#1" to="38128450#5"/>
    <trip id="veh210" type="veh_passenger" depart="967.17" departLane="best" from="38508047#2" to="377158708"/>
    <trip id="veh211" type="veh_passenger" depart="971.78" departLane="best" from="534916554#0" to="38128397#2"/>
    <trip id="veh212" type="veh_passenger" depart="976.38" departLane="best" from="6016588#3" to="4362581#3"/>
    <trip id="veh214" type="veh_passenger" depart="985.59" departLane="best" from="4769187#2" to="38128383#10"/>
    <trip id="veh215" type="veh_passenger" depart="990.20" departLane="best" departSpeed="max" from="38128483#0" to="-57400731#1"/>
    <trip id="veh216" type="veh_passenger" depart="994.80" departLane="best" from="-57400726#0" to="-8065751#6"/>
    <trip id="veh217" type="veh_passenger" depart="999.41" departLane="best" from="38128389" to="-38128408"/>
    <trip id="veh218" type="veh_passenger" depart="1004.02" departLane="best" from="-38508055" to="384467504#0"/>
    <trip id="veh220" type="veh_passenger" depart="1013.23" departLane="best" from="154946367#0" to="38128394#4"/>
    <trip id="veh221" type="veh_passenger" depart="1017.83" departLane="best" from="154946370#2" to="-384467501"/>
    <trip id="veh222" type="veh_passenger" depart="1022.44" departLane="best" from="154946371#1" to="6016588#6"/>
    <trip id="veh223" type="veh_passenger" depart="1027.04" departLane="best" from="38128427#1" to="384467504#0"/>
    <trip id="veh224" type="veh_passenger" depart="1031.65" departLane="best" from="544650154#1" to="4769208#2"/>
    <trip id="veh225" type="veh_passenger" depart="1036.25" departLane="best" from="143317262#1" to="-142725085#4"/>
    <trip id="veh226" type="veh_passenger" depart="1040.86" departLane="best" from="-96783552#1" to="4769187#0"/>
    <trip id="veh227" type="veh_passenger" depart="1045.47" departLane="best" from="534916591#1" to="792838976#2"/>
    <trip id="veh228" type="veh_passenger" depart="1050.07" departLane="best" from="154946370#5" to="457725784"/>
    <trip id="veh229" type="veh_passenger" depart="1054.68" departLane="best" from="38128394#5" to="38128444#3"/>
    <trip id="veh230" type="veh_passenger" depart="1059.28" departLane="best" from="-38508033" to="-38508032"/>
    <trip id="veh232" type="veh_passenger" depart="1068.49" departLane="best" from="-90200380#3" to="384467498#3"/>
    <trip id="veh233" type="veh_passenger" depart="1073.10" departLane="best" from="154946362#0" to="-38128431#1"/>
    <trip id="veh234" type="veh_passenger" depart="1077.70" departLane="best" from="26442127#3" to="-38128399#1"/>
    <trip id="veh235" type="veh_passenger" depart="1082.31" departLane="best" departSpeed="max" from="38128483#0" to="-154946349#1"/>
    <trip id="veh236" type="veh_passenger" depart="1086.92" departLane="best" from="-38128404" to="23777646#2"/>
    <trip id="veh237" type="veh_passenger" depart="1091.52" departLane="best" from="-179058351" to="143317263"/>
    <trip id="veh238" type="veh_passenger" depart="1096.13" departLane="best" from="-384467503#0" to="-90200372#0"/>
    <trip id="veh239" type="veh_passenger" depart="1100.73" departLane="best" from="4769187#0" to="143317263"/>
    <trip id="veh241" type="veh_passenger" depart="1109.94" departLane="best" from="-4769351#13" to="-26442127#5"/>
    <trip id="veh242" type="veh_passenger" depart="1114.55" departLane="best" from="-143317262#0" to="38128394#1"/>
    <trip id="veh243" type="veh_passenger" depart="1119.16" departLane="best" from="384392306#2" to="4769209#3"/>
    <trip id="veh244" type="veh_passenger" depart="1123.76" departLane="best" from="384392307#0" to="4769187#1"/>
    <trip id="veh245" type="veh_passenger" depart="1128.37" departLane="best" from="744686040#6" to="-38300057#0"/>
    <trip id="veh246" type="veh_passenger" depart="1132.97" departLane="best" from="-143317262#1" to="-38128426#0"/>
    <trip id="veh247" type="veh_passenger" depart="1137.58" departLane="best" from="-38128397#3" to="384467498#0"/>
    <trip id="veh248" type="veh_passenger" depart="1142.18" departLane="best" from="38128408" to="-38508031"/>
    <trip id="veh249" type="veh_passenger" depart="1146.79" departLane="best" from="384467501" to="4769208#2"/>
    <trip id="veh250" type="veh_passenger" depart="1151.39" departLane="best" from="4326327#0" to="-38128389"/>
    <trip id="veh251" type="veh_passenger" depart="1156.00" departLane="best" from="-38128384#4" to="-150387776"/>
    <trip id="veh252" type="veh_passenger" depart="1160.61" departLane="best" from="-744686040#6" to="384467498#2"/>
    <trip id="veh253" type="veh_passenger" depart="1165.21" departLane="best" from="8065751#5" to="154946349#1"/>
    <trip id="veh254" type="veh_passenger" depart="1169.82" departLane="best" from="38508032" to="-23298885#5"/>
    <trip id="veh255" type="veh_passenger" depart="1174.42" departLane="best" from="384467498#2" to="38300057#0"/>
    <trip id="veh256" type="veh_passenger" depart="1179.03" departLane="best" from="-38128383#5" to="4769209#0"/>
    <trip id="veh257" type="veh_passenger" depart="1183.63" departLane="best" from="534916585#2" to="38128444#0"/>
    <trip id="veh258" type="veh_passenger" depart="1188.24" departLane="best" from="-38128394#6" to="943972926#0"/>
    <trip id="veh259" type="veh_passenger" depart="1192.84" departLane="best" from="4769209#1" to="-96742261#1"/>
    <trip id="veh260" type="veh_passenger" depart="1197.45" departLane="best" from="179123127#2" to="143317253#2"/>
    <trip id="veh261" type="veh_passenger" depart="1202.06" departLane="best" from="377158708" to="-943972926#0"/>
    <trip id="veh262" type="veh_passenger" depart="1206.66" departLane="best" from="534916585#2" to="534916554#0"/>
    <trip id="veh263" type="veh_passenger" depart="1211.27" departLane="best" from="-38128384#1" to="822255859#1"/>
    <trip id="veh264" type="veh_passenger" depart="1215.87" departLane="best" from="38300052" to="534916566"/>
    <trip id="veh266" type="veh_passenger" depart="1225.08" departLane="best" from="40916612#0" to="90200364#1"/>
    <trip id="veh267" type="veh_passenger" depart="1229.69" departLane="best" from="-57400725" to="4769353#1"/>
    <trip id="veh268" type="veh_passenger" depart="1234.29" departLane="best" from="38128387" to="29719968#5"/>
    <trip id="veh270" type="veh_passenger" depart="1243.51" departLane="best" from="534916554#0" to="-29719971#1"/>
    <trip id="veh271" type="veh_passenger" depart="1248.11" departLane="best" from="54729988#0" to="-40916616#4"/>
    <trip id="veh272" type="veh_passenger" depart="1252.72" departLane="best" from="26442127#0" to="38128450#3"/>
    <trip id="veh273" type="veh_passenger" depart="1257.32" departLane="best" from="143317262#0" to="-154946350#0"/>
    <trip id="veh274" type="veh_passenger" depart="1261.93" departLane="best" from="534916591#1" to="-38128446#1"/>
    <trip id="veh275" type="veh_passenger" depart="1266.53" departLane="best" from="-384467503#0" to="4769351#5"/>
    <trip id="veh276" type="veh_passenger" depart="1271.14" departLane="best" from="-90200380#7" to="57400726#2"/>
    <trip id="veh277" type="veh_passenger" depart="1275.74" departLane="best" from="384467502#2" to="-686936940#1"/>
    <trip id="veh278" type="veh_passenger" depart="1280.35" departLane="best" from="-143317252" to="744686040#3"/>
    <trip id="veh279" type="veh_passenger" depart="1284.96" departLane="best" from="-27431234#3" to="40916610#1"/>
    <trip id="veh280" type="veh_passenger" depart="1289.56" departLane="best" from="33538172#0" to="4769187#2"/>
    <trip id="veh281" type="veh_passenger" depart="1294.17" departLane="best" from="384467498#2" to="384392309#0"/>
    <trip id="veh282" type="veh_passenger" depart="1298.77" departLane="best" from="-37982501#2" to="-38508047#0"/>
    <trip id="veh283" type="veh_passenger" depart="1303.38" departLane="best" from="384467498#3" to="-744686040#15"/>
    <trip id="veh285" type="veh_passenger" depart="1312.59" departLane="best" from="38128384#1" to="179123127#1"/>
    <trip id="veh286" type="veh_passenger" depart="1317.19" departLane="best" from="4326326#0" to="-90200372#5"/>