<?xml version="1.0" encoding="UTF-8"?>

<!-- generated on 2022-03-10 11:17:54 by Eclipse SUMO duarouter Version 1.12.0
<configuration xmlns:xsi="http://www.w3.org/2001/XMLSchema-instance" xsi:noNamespaceSchemaLocation="http://sumo.dlr.de/xsd/duarouterConfiguration.xsd">

    <input>
        <net-file value="C:\Users\elamb\Sumo\2022-03-10-11-17-40\osm.net.xml"/>
        <route-files value="C:\Users\elamb\Sumo\2022-03-10-11-17-40\osm.bicycle.trips.xml"/>
    </input>

    <output>
        <output-file value="C:\Users\elamb\Sumo\2022-03-10-11-17-40\osm.bicycle.trips.xml.tmp"/>
        <write-trips value="true"/>
    </output>

    <time>
        <begin value="0"/>
        <end value="3600"/>
    </time>

    <report>
        <no-warnings value="true"/>
        <ignore-errors value="true"/>
        <no-step-log value="true"/>
    </report>

</configuration>
-->

<routes xmlns:xsi="http://www.w3.org/2001/XMLSchema-instance" xsi:noNamespaceSchemaLocation="http://sumo.dlr.de/xsd/routes_file.xsd">
    <vType id="bike_bicycle" vClass="bicycle"/>
    <trip id="bike0" type="bike_bicycle" depart="0.00" departLane="best" from="38128439#2" to="-143317268#3"/>
    <trip id="bike1" type="bike_bicycle" depart="6.87" departLane="best" from="-444110764#1" to="-40916610#1"/>
    <trip id="bike2" type="bike_bicycle" depart="13.74" departLane="best" from="429285996#2" to="384467506#0"/>
    <trip id="bike3" type="bike_bicycle" depart="20.61" departLane="best" from="719431751#0" to="-23298885#2"/>
    <trip id="bike4" type="bike_bicycle" depart="27.47" departLane="best" from="-943972889#1" to="-143317270"/>
    <trip id="bike5" type="bike_bicycle" depart="34.34" departLane="best" from="-38508049#1" to="154946371#0"/>
    <trip id="bike6" type="bike_bicycle" depart="41.21" departLane="best" from="-143317268#5" to="-384394382"/>
    <trip id="bike7" type="bike_bicycle" depart="48.08" departLane="best" from="38128450#5" to="27413305#2"/>
    <trip id="bike8" type="bike_bicycle" depart="54.95" departLane="best" from="-38508056#1" to="38128384#4"/>
    <trip id="bike9" type="bike_bicycle" depart="61.82" departLane="best" from="4769351#12" to="-142725087#0"/>
    <trip id="bike10" type="bike_bicycle" depart="68.69" departLane="best" from="4769209#2" to="40916610#2"/>
    <trip id="bike11" type="bike_bicycle" depart="75.55" departLane="best" from="-694559938#0" to="-38128426#2"/>
    <trip id="bike12" type="bike_bicycle" depart="82.42" departLane="best" from="90200372#5" to="-694559932"/>
    <trip id="bike15" type="bike_bicycle" depart="103.03" departLane="best" from="4769351#0" to="429285995#0"/>
    <trip id="bike16" type="bike_bicycle" depart="109.90" departLane="best" from="23111989#4" to="943972929#0"/>
    <trip id="bike17" type="bike_bicycle" depart="116.77" departLane="best" from="-852529749#1" to="29719964#1"/>
    <trip id="bike18" type="bike_bicycle" depart="123.63" departLane="best" from="614342258#0" to="38128421"/>
    <trip id="bike19" type="bike_bicycle" depart="130.50" departLane="best" from="694559928" to="37982501#2"/>
    <trip id="bike20" type="bike_bicycle" depart="137.37" departLane="best" from="40916616#4" to="-154946360#1"/>
    <trip id="bike21" type="bike_bicycle" depart="144.24" departLane="best" from="-40916616#3" to="-457679338#0"/>
    <trip id="bike22" type="bike_bicycle" depart="151.11" departLane="best" from="-187114675" to="-42043536#1"/>
    <trip id="bike23" type="bike_bicycle" depart="157.98" departLane="best" from="-343772112#0" to="-457679328#1"/>
    <trip id="bike24" type="bike_bicycle" depart="164.85" departLane="best" from="38128432#1" to="-744686040#2"/>
    <trip id="bike26" type="bike_bicycle" depart="178.58" departLane="best" from="-444110736" to="867556496#5"/>
    <trip id="bike27" type="bike_bicycle" depart="185.45" departLane="best" from="38128450#2" to="38128401#2"/>
    <trip id="bike28" type="bike_bicycle" depart="192.32" departLane="best" from="-38128443#0" to="429284454"/>
    <trip id="bike30" type="bike_bicycle" depart="206.06" departLane="best" from="957533964#1" to="38128443#1"/>
    <trip id="bike31" type="bike_bicycle" depart="212.92" departLane="best" from="29719968#5" to="38508032"/>
    <trip id="bike32" type="bike_bicycle" depart="219.79" departLane="best" from="686936947#0" to="444110756#3"/>
    <trip id="bike33" type="bike_bicycle" depart="226.66" departLane="best" from="-42043535#0" to="-143317276#0"/>
    <trip id="bike34" type="bike_bicycle" depart="233.53" departLane="best" from="-686936940#14" to="-444110747"/>
    <trip id="bike35" type="bike_bicycle" depart="240.40" departLane="best" from="-38508033" to="890644036#3"/>
    <trip id="bike36" type="bike_bicycle" depart="247.27" departLane="best" from="694559955#0" to="-686936940#14"/>
    <trip id="bike37" type="bike_bicycle" depart="254.14" departLane="best" from="38300053#2" to="-890644036#4"/>
    <trip id="bike38" type="bike_bicycle" depart="261.00" departLane="best" from="8065751#4" to="142725089"/>
    <trip id="bike39" type="bike_bicycle" depart="267.87" departLane="best" from="-429288151" to="-42043536#30"/>
    <trip id="bike41" type="bike_bicycle" depart="281.61" departLane="best" from="38128383#10" to="744686036#3"/>
    <trip id="bike42" type="bike_bicycle" depart="288.48" departLane="best" from="-890644036#9" to="-38508056#0"/>
    <trip id="bike44" type="bike_bicycle" depart="302.22" departLane="best" from="-26442127#3" to="-154946362#1"/>
    <trip id="bike45" type="bike_bicycle" depart="309.08" departLane="best" from="-379489452" to="38128427#3"/>
    <trip id="bike46" type="bike_bicycle" depart="315.95" departLane="best" from="457679337#2" to="-943972926#0"/>
    <trip id="bike47" type="bike_bicycle" depart="322.82" departLane="best" from="-154946403#0" to="-855236780#1"/>
    <trip id="bike48" type="bike_bicycle" depart="329.69" departLane="best" from="96783578#0" to="187114674#0"/>
    <trip id="bike49" type="bike_bicycle" depart="336.56" departLane="best" from="943972926#0" to="690329765#2"/>
    <trip id="bike50" type="bike_bicycle" depart="343.43" departLane="best" from="-143236676" to="42043536#3"/>
    <trip id="bike51" type="bike_bicycle" depart="350.30" departLane="best" from="384654124#1" to="23298885#1"/>
    <trip id="bike53" type="bike_bicycle" depart="364.03" departLane="best" from="-37982501#2" to="-943972944#3"/>
    <trip id="bike54" type="bike_bicycle" depart="370.90" departLane="best" from="142725085#0" to="90200364#4"/>
    <trip id="bike55" type="bike_bicycle" depart="377.77" departLane="best" from="694559954#1" to="-429287688#9"/>
    <trip id="bike56" type="bike_bicycle" depart="384.64" departLane="best" from="154946368#3" to="-38128450#3"/>
    <trip id="bike57" type="bike_bicycle" depart="391.51" departLane="best" from="792838976#3" to="694559941#2"/>
    <trip id="bike58" type="bike_bicycle" depart="398.38" departLane="best" from="-4769351#0" to="38128443#0"/>
    <trip id="bike59" type="bike_bicycle" depart="405.24" departLane="best" from="38128401#0" to="-38128424"/>
    <trip id="bike60" type="bike_bicycle" depart="412.11" departLane="best" from="429291407#4" to="23777646#0"/>
    <trip id="bike61" type="bike_bicycle" depart="418.98" departLane="best" from="444110764#3" to="187114675"/>
    <trip id="bike62" type="bike_bicycle" depart="425.85" departLane="best" from="-1003560218" to="-686936948#2"/>
    <trip id="bike63" type="bike_bicycle" depart="432.72" departLane="best" from="-143317262#1" to="852529757"/>
    <trip id="bike64" type="bike_bicycle" depart="439.59" departLane="best" from="694559956" to="614342258#3"/>
    <trip id="bike65" type="bike_bicycle" depart="446.46" departLane="best" from="-560402070" to="-154946380"/>
    <trip id="bike66" type="bike_bicycle" depart="453.32" departLane="best" from="694559955#2" to="890644037"/>
    <trip id="bike67" type="bike_bicycle" depart="460.19" departLane="best" from="-23298885#0" to="143317277#3"/>
    <trip id="bike68" type="bike_bicycle" depart="467.06" departLane="best" from="-179058363#1" to="429291407#4"/>
    <trip id="bike69" type="bike_bicycle" depart="473.93" departLane="best" from="429291407#9" to="-38128392"/>
    <trip id="bike70" type="bike_bicycle" depart="480.80" departLane="best" from="143317268#2" to="27431234#2"/>
    <trip id="bike71" type="bike_bicycle" depart="487.67" departLane="best" from="-443653820#1" to="694559943#2"/>
    <trip id="bike72" type="bike_bicycle" depart="494.54" departLane="best" from="-943972926#0" to="-38508044"/>
    <trip id="bike73" type="bike_bicycle" depart="501.40" departLane="best" from="23298885#3" to="429285995#0"/>
    <trip id="bike74" type="bike_bicycle" depart="508.27" departLane="best" from="-384467503#0" to="-686936940#0"/>
    <trip id="bike75" type="bike_bicycle" depart="515.14" departLane="best" from="96783559" to="38128457"/>
    <trip id="bike76" type="bike_bicycle" depart="522.01" departLane="best" from="-956357863" to="179058359#0"/>
    <trip id="bike77" type="bike_bicycle" depart="528.88" departLane="best" from="-38128384#3" to="-40916612#1"/>
    <trip id="bike78" type="bike_bicycle" depart="535.75" departLane="best" from="-694559934" to="38128384#2"/>
    <trip id="bike79" type="bike_bicycle" depart="542.61" departLane="best" from="-42043535#2" to="-38508057"/>
    <trip id="bike80" type="bike_bicycle" depart="549.48" departLane="best" from="-179058365#1" to="38128431#1"/>
    <trip id="bike81" type="bike_bicycle" depart="556.35" departLane="best" from="-42043535#0" to="744686040#2"/>
    <trip id="bike82" type="bike_bicycle" depart="563.22" departLane="best" from="690329765#1" to="-179058365#1"/>
    <trip id="bike83" type="bike_bicycle" depart="570.09" departLane="best" from="-42043536#17" to="384394375#3"/>
    <trip id="bike84" type="bike_bicycle" depart="576.96" departLane="best" from="-38508047#1" to="-38128394#4"/>
    <trip id="bike85" type="bike_bicycle" depart="583.83" departLane="best" from="867556496#3" to="343772845#2"/>
    <trip id="bike86" type="bike_bicycle" depart="590.69" departLane="best" from="143317268#1" to="457679328#5"/>
    <trip id="bike87" type="bike_bicycle" depart="597.56" departLane="best" from="4769351#1" to="-384394368"/>
    <trip id="bike88" type="bike_bicycle" depart="604.43" departLane="best" from="-29719971#1" to="-943972941"/>
    <trip id="bike89" type="bike_bicycle" depart="611.30" departLane="best" from="-943972926#1" to="143317260#1"/>
    <trip id="bike90" type="bike_bicycle" depart="618.17" departLane="best" from="42043538#3" to="384467503#0"/>
    <trip id="bike92" type="bike_bicycle" depart="631.91" departLane="best" from="-894865200#0" to="-694559936"/>
    <trip id="bike93" type="bike_bicycle" depart="638.77" departLane="best" from="694559928" to="-42043536#6"/>
    <trip id="bike95" type="bike_bicycle" depart="652.51" departLane="best" from="-943972889#1" to="-457679328#2"/>
    <trip id="bike97" type="bike_bicycle" depart="666.25" departLane="best" from="-96742259" to="694460617"/>
    <trip id="bike98" type="bike_bicycle" depart="673.12" departLane="best" from="27431234#1" to="-154946368#3"/>
    <trip id="bike99" type="bike_bicycle" depart="679.99" departLane="best" from="991678975#0" to="686936940#14"/>
    <trip id="bike101" type="bike_bicycle" depart="693.72" departLane="best" from="686936958#1" to="-38128432#1"/>
    <trip id="bike102" type="bike_bicycle" depart="700.59" departLane="best" from="143317277#0" to="-38508047#1"/>
    <trip id="bike103" type="bike_bicycle" depart="707.46" departLane="best" from="-890644039" to="-154946382"/>
    <trip id="bike104" type="bike_bicycle" depart="714.33" departLane="best" from="-852529749#1" to="943972945"/>
    <trip id="bike105" type="bike_bicycle" depart="721.20" departLane="best" from="-443653820#1" to="457679328#5"/>
    <trip id="bike106" type="bike_bicycle" depart="728.07" departLane="best" from="142725085#3" to="-943972926#2"/>
    <trip id="bike107" type="bike_bicycle" depart="734.93" departLane="best" from="90200372#5" to="96783559"/>
    <trip id="bike108" type="bike_bicycle" depart="741.80" departLane="best" from="29719968#3" to="42043536#26"/>
    <trip id="bike109" type="bike_bicycle" depart="748.67" departLane="best" from="-38128426#0" to="-458434320"/>
    <trip id="bike110" type="bike_bicycle" depart="755.54" departLane="best" from="943972888" to="37999801#0"/>
    <trip id="bike111" type="bike_bicycle" depart="762.41" departLane="best" from="26442127#1" to="429287852#2"/>
    <trip id="bike112" type="bike_bicycle" depart="769.28" departLane="best" from="-154946371#1" to="38128383#3"/>
    <trip id="bike113" type="bike_bicycle" depart="776.15" departLane="best" from="154946370#0" to="686936970"/>
    <trip id="bike114" type="bike_bicycle" depart="783.01" departLane="best" from="-38128426#4" to="90200380#5"/>
    <trip id="bike115" type="bike_bicycle" depart="789.88" departLane="best" from="-187114676#0" to="-38300053#2"/>
    <trip id="bike116" type="bike_bicycle" depart="796.75" departLane="best" from="38128389" to="384467503#3"/>
    <trip id="bike117" type="bike_bicycle" depart="803.62" departLane="best" from="-42043536#12" to="-38128384#2"/>
    <trip id="bike118" type="bike_bicycle" depart="810.49" departLane="best" from="719431749#1" to="-42043536#3"/>
    <trip id="bike119" type="bike_bicycle" depart="817.36" departLane="best" from="38128388" to="38128422"/>
    <trip id="bike120" type="bike_bicycle" depart="824.23" departLane="best" from="-943972884" to="38128383#2"/>
    <trip id="bike121" type="bike_bicycle" depart="831.09" departLane="best" from="179058365#1" to="867556496#2"/>
    <trip id="bike122" type="bike_bicycle" depart="837.96" departLane="best" from="-384467506#0" to="42043536#22"/>
    <trip id="bike123" type="bike_bicycle" depart="844.83" departLane="best" from="-42043536#18" to="-890644036#5"/>
    <trip id="bike124" type="bike_bicycle" depart="851.70" departLane="best" from="384394377" to="-4769351#11"/>
    <trip id="bike125" type="bike_bicycle" depart="858.57" departLane="best" from="-686936940#2" to="429289412#4"/>
    <trip id="bike126" type="bike_bicycle" depart="865.44" departLane="best" from="-179123127#0" to="142725088#2"/>
    <trip id="bike127" type="bike_bicycle" depart="872.30" departLane="best" from="96783601#1" to="96783578#0"/>
    <trip id="bike128" type="bike_bicycle" depart="879.17" departLane="best" from="-179123127#1" to="-38508047#0"/>
    <trip id="bike130" type="bike_bicycle" depart="892.91" departLane="best" from="694559959#0" to="694559956"/>
    <trip id="bike132" type="bike_bicycle" depart="906.65" departLane="best" from="686936940#10" to="42043535#0"/>
    <trip id="bike133" type="bike_bicycle" depart="913.52" departLane="best" from="38128401#4" to="956357863"/>
    <trip id="bike134" type="bike_bicycle" depart="920.38" departLane="best" from="38300052" to="-142725087#2"/>
    <trip id="bike135" type="bike_bicycle" depart="927.25" departLane="best" from="4769353#1" to="-4769351#10"/>
    <trip id="bike136" type="bike_bicycle" depart="934.12" departLane="best" from="384394365#0" to="870249718"/>
    <trip id="bike137" type="bike_bicycle" depart="940.99" departLane="best" from="-38128396" to="-38128383#2"/>
    <trip id="bike138" type="bike_bicycle" depart="947.86" departLane="best" from="-343772845#2" to="29719968#1"/>
    <trip id="bike139" type="bike_bicycle" depart="954.73" departLane="best" from="-444110762#0" to="38128397#3"/>
    <trip id="bike140" type="bike_bicycle" depart="961.60" departLane="best" from="42043536#22" to="-384467506#0"/>
    <trip id="bike141" type="bike_bicycle" depart="968.46" departLane="best" from="38128431#3" to="-429288151"/>
    <trip id="bike142" type="bike_bicycle" depart="975.33" departLane="best" from="143317279#1" to="744686040#2"/>
    <trip id="bike143" type="bike_bicycle" depart="982.20" departLane="best" from="686936950" to="-27413307#0"/>
    <trip id="bike144" type="bike_bicycle" depart="989.07" departLane="best" from="-943972926#1" to="-457679327"/>
    <trip id="bike145" type="bike_bicycle" depart="995.94" departLane="best" from="-142725085#0" to="444110742"/>
    <trip id="bike146" type="bike_bicycle" depart="1002.81" departLane="best" from="38128436#1" to="-429287688#4"/>
    <trip id="bike148" type="bike_bicycle" depart="1016.54" departLane="best" from="-943972933#1" to="-142725088#2"/>
    <trip id="bike149" type="bike_bicycle" depart="1023.41" departLane="best" from="-179127854#1" to="694559960#1"/>
    <trip id="bike150" type="bike_bicycle" depart="1030.28" departLane="best" from="744686040#14" to="27413307#0"/>
    <trip id="bike151" type="bike_bicycle" depart="1037.15" departLane="best" from="686936940#13" to="38128383#0"/>
    <trip id="bike152" type="bike_bicycle" depart="1044.02" departLane="best" from="-38128418" to="-38128391#1"/>
    <trip id="bike153" type="bike_bicycle" depart="1050.89" departLane="best" from="-57400725" to="744686036#6"/>
    <trip id="bike154" type="bike_bicycle" depart="1057.76" departLane="best" from="457679340#1" to="690329765#2"/>
    <trip id="bike155" type="bike_bicycle" depart="1064.62" departLane="best" from="744686036#6" to="-38508033"/>
    <trip id="bike156" type="bike_bicycle" depart="1071.49" departLane="best" from="-42043536#6" to="-343772115#1"/>
    <trip id="bike157" type="bike_bicycle" depart="1078.36" departLane="best" from="457679327" to="694559960#3"/>
    <trip id="bike158" type="bike_bicycle" depart="1085.23" departLane="best" from="-90200364#4" to="38128423#2"/>
    <trip id="bike159" type="bike_bicycle" depart="1092.10" departLane="best" from="-38128425#1" to="855236780#1"/>
    <trip id="bike160" type="bike_bicycle" depart="1098.97" departLane="best" from="694559932" to="943972933#0"/>
    <trip id="bike161" type="bike_bicycle" depart="1105.84" departLane="best" from="4769351#14" to="694559959#0"/>
    <trip id="bike162" type="bike_bicycle" depart="1112.70" departLane="best" from="-143317268#2" to="429286799#1"/>
    <trip id="bike163" type="bike_bicycle" depart="1119.57" departLane="best" from="-686936972" to="855236781"/>
    <trip id="bike164" type="bike_bicycle" depart="1126.44" departLane="best" from="458434314" to="694559931"/>
    <trip id="bike165" type="bike_bicycle" depart="1133.31" departLane="best" from="4769351#14" to="-444110742"/>
    <trip id="bike166" type="bike_bicycle" depart="1140.18" departLane="best" from="457679333#0" to="-379489449"/>
    <trip id="bike167" type="bike_bicycle" depart="1147.05" departLane="best" from="694559943#2" to="690329764#1"/>
    <trip id="bike168" type="bike_bicycle" depart="1153.92" departLane="best" from="-40916607#0" to="4769352#1"/>
    <trip id="bike170" type="bike_bicycle" depart="1167.65" departLane="best" from="457679340#0" to="-40916616#4"/>
    <trip id="bike171" type="bike_bicycle" depart="1174.52" departLane="best" from="-143317268#12" to="-384394373"/>
    <trip id="bike172" type="bike_bicycle" depart="1181.39" departLane="best" from="-686936967#0" to="694559931"/>
    <trip id="bike173" type="bike_bicycle" depart="1188.26" departLane="best" from="931227069#1" to="-457679328#3"/>
    <trip id="bike174" type="bike_bicycle" depart="1195.13" departLane="best" from="38128443#1" to="-890644038"/>
    <trip id="bike175" type="bike_bicycle" depart="1201.99" departLane="best" from="943972941" to="23298885#0"/>
    <trip id="bike176" type="bike_bicycle" depart="1208.86" departLane="best" from="870249718" to="-38128383#2"/>
    <trip id="bike177" type="bike_bicycle" depart="1215.73" departLane="best" from="943972907" to="-38128450#3"/>
    <trip id="bike178" type="bike_bicycle" depart="1222.60" departLane="best" from="90200389#0" to="-443653821"/>
    <trip id="bike179" type="bike_bicycle" depart="1229.47" departLane="best" from="-379489449" to="-943972944#3"/>
    <trip id="bike180" type="bike_bicycle" depart="1236.34" departLane="best" from="42043538#2" to="-686936940#12"/>
    <trip id="bike181" type="bike_bicycle" depart="1243.21" departLane="best" from="38128397#3" to="154946402#1"/>
    <trip id="bike182" type="bike_bicycle" depart="1250.07" departLane="best" from="-867556465#1" to="37982501#1"/>
    <trip id="bike183" type="bike_bicycle" depart="1256.94" departLane="best" from="-429286799#1" to="42043536#11"/>
    <trip id="bike185" type="bike_bicycle" depart="1270.68" departLane="best" from="23298885#1" to="42043536#28"/>
    <trip id="bike186" type="bike_bicycle" depart="1277.55" departLane="best" from="429287688#13" to="384394379"/>
    <trip id="bike187" type="bike_bicycle" depart="1284.42" departLane="best" from="-744686040#12" to="-179058363#2"/>
    <trip id="bike188" type="bike_bicycle" depart="1291.29" departLane="best" from="384394367" to="-686936970"/>
    <trip id="bike190" type="bike_bicycle" depart="1305.02" departLane="best" from="42043536#25" to="-4769351#12"/>
    <trip id="bike192" type="bike_bicycle" depart="1318.76" departLane="best" from="-894865200#0" to="-458434313"/>
    <trip id="bike193" type="bike_bicycle" depart="1325.63" departLane="best" from="-38128391#0" to="-943972889#0"/>
    <trip id="bike194" type="bike_bicycle" depart="1332.50" departLane="best" from="890644035#2" to="384467506#1"/>
    <trip id="bike195" type="bike_bicycle" depart="1339.37" departLane="best" from="744686040#10" to="38128417#1"/>
    <trip id="bike196" type="bike_bicycle" depart="1346.23" departLane="best" from="-4769351#12" to="27413308#3"/>
    <trip id="bike197" type="bike_bicycle" depart="1353.10" departLane="best" from="-1003560218" to="-457679336"/>
    <trip id="bike198" type="bike_bicycle" depart="1359.97" departLane="best" from="-943972935#0" to="37999801#1"/>
    <trip id="bike199" type="bike_bicycle" depart="1366.84" departLane="best" from="38300053#1" to="143317255"/>
    <trip id="bike200" type="bike_bicycle" depart="1373.71" departLane="best" from="-96742254#2" to="-38508047#1"/>
    <trip id="bike201" type="bike_bicycle" depart="1380.58" departLane="best" from="143317268#10" to="744686036#9"/>
    <trip id="bike202" type="bike_bicycle" depart="1387.45" departLane="best" from="457679340#1" to="-38128439#2"/>
    <trip id="bike203" type="bike_bicycle" depart="1394.31" departLane="best" from="-23111989#4" to="169042655#1"/>
    <trip id="bike204" type="bike_bicycle" depart="1401.18" departLane="best" from="38128431#1" to="-694559930"/>
    <trip id="bike206" type="bike_bicycle" depart="1414.92" departLane="best" from="384394380" to="-40916612#1"/>
    <trip id="bike207" type="bike_bicycle" depart="1421.79" departLane="best" from="-384394382" to="-143317268#2"/>
    <trip id="bike208" type="bike_bicycle" depart="1428.66" departLane="best" from="-42043536#27" to="143317268#4"/>
    <trip id="bike209" type="bike_bicycle" depart="1435.53" departLane="best" from="686936967#0" to="-179123127#1"/>
    <trip id="bike210" type="bike_bicycle" depart="1442.39" departLane="best" from="-90200380#6" to="38128429#3"/>
    <trip id="bike211" type="bike_bicycle" depart="1449.26" departLane="best" from="-384394375#0" to="40916607#0"/>
    <trip id="bike212" type="bike_bicycle" depart="1456.13" departLane="best" from="154946350#1" to="-42043536#27"/>
    <trip id="bike213" type="bike_bicycle" depart="1463.00" departLane="best" from="38300053#3" to="-142725085#5"/>
    <trip id="bike215" type="bike_bicycle" depart="1476.74" departLane="best" from="-343772845#1" to="-943972930"/>
    <trip id="bike216" type="bike_bicycle" depart="1483.61" departLane="best" from="-38128447" to="90200375"/>
    <trip id="bike217" type="bike_bicycle" depart="1490.47" departLane="best" from="179058357" to="-154946368#3"/>
    <trip id="bike218" type="bike_bicycle" depart="1497.34" departLane="best" from="-42043536#5" to="686936958#0"/>
    <trip id="bike219" type="bike_bicycle" depart="1504.21" departLane="best" from="142725085#5" to="458024424#1"/>
    <trip id="bike220" type="bike_bicycle" depart="1511.08" departLane="best" from="384394372" to="957533963#2"/>
    <trip id="bike221" type="bike_bicycle" depart="1517.95" departLane="best" from="38128389" to="894865200#1"/>
    <trip id="bike222" type="bike_bicycle" depart="1524.82" departLane="best" from="719431750#0" to="38128406"/>
    <trip id="bike223" type="bike_bicycle" depart="1531.68" departLane="best" from="42043536#25" to="154946370#5"/>
    <trip id="bike224" type="bike_bicycle" depart="1538.55" departLane="best" from="614342258#2" to="27413308#3"/>
    <trip id="bike225" type="bike_bicycle" depart="1545.42" departLane="best" from="744686036#2" to="429287688#22"/>
    <trip id="bike226" type="bike_bicycle" depart="1552.29" departLane="best" from="143317268#12" to="-429287688#19"/>
    <trip id="bike227" type="bike_bicycle" depart="1559.16" departLane="best" from="-42043536#30" to="38128439#2"/>
    <trip id="bike228" type="bike_bicycle" depart="1566.03" departLane="best" from="429291407#9" to="179058365#0"/>
    <trip id="bike229" type="bike_bicycle" depart="1572.90" departLane="best" from="38128426#4" to="-444110764#1"/>
    <trip id="bike230" type="bike_bicycle" depart="1579.76" departLane="best" from="-187114673#1" to="-457679335#0"/>
    <trip id="bike231" type="bike_bicycle" depart="1586.63" departLane="best" from="-444110756#2" to="-686936944#0"/>
    <trip id="bike232" type="bike_bicycle" depart="1593.50" departLane="best" from="23298885#5" to="-38128399#1"/>
    <trip id="bike233" type="bike_bicycle" depart="1600.37" departLane="best" from="-42043535#4" to="38508056#0"/>
    <trip id="bike234" type="bike_bicycle" depart="1607.24" departLane="best" from="42043535#2" to="-158709344"/>
    <trip id="bike235" type="bike_bicycle" depart="1614.11" departLane="best" from="-90200372#1" to="26442127#3"/>
    <trip id="bike237" type="bike_bicycle" depart="1627.84" departLane="best" from="-943972887" to="744686040#15"/>
    <trip id="bike238" type="bike_bicycle" depart="1634.71" departLane="best" from="38128383#10" to="38508057"/>
    <trip id="bike241" type="bike_bicycle" depart="1655.32" departLane="best" from="-701539493#2" to="429289421#1"/>
    <trip id="bike242" type="bike_bicycle" depart="1662.19" departLane="best" from="686936972" to="90200364#4"/>
    <trip id="bike243" type="bike_bicycle" depart="1669.06" departLane="best" from="-931227068" to="429287852#1"/>
    <trip id="bike244" type="bike_bicycle" depart="1675.92" departLane="best" from="27413305#2" to="38128397#1"/>
    <trip id="bike245" type="bike_bicycle" depart="1682.79" departLane="best" from="-38508056#1" to="-38508056#0"/>
    <trip id="bike246" type="bike_bicycle" depart="1689.66" departLane="best" from="-943972944#3" to="-143317268#9"/>
    <trip id="bike247" type="bike_bicycle" depart="1696.53" departLane="best" from="-694559930" to="384654123"/>
    <trip id="bike248" type="bike_bicycle" depart="1703.40" departLane="best" from="-90200364#0" to="-38128431#4"/>
    <trip id="bike249" type="bike_bicycle" depart="1710.27" departLane="best" from="143317260#0" to="-38128391#1"/>
    <trip id="bike250" type="bike_bicycle" depart="1717.14" departLane="best" from="38128424" to="-143317268#6"/>
    <trip id="bike251" type="bike_bicycle" depart="1724.00" departLane="best" from="-890644036#0" to="343772115#1"/>
    <trip id="bike252" type="bike_bicycle" depart="1730.87" departLane="best" from="-143317268#6" to="38128446#0"/>
    <trip id="bike253" type="bike_bicycle" depart="1737.74" departLane="best" from="-38128397#1" to="143236682"/>
    <trip id="bike255" type="bike_bicycle" depart="1751.48" departLane="best" from="-38508043" to="-686936963"/>
    <trip id="bike258" type="bike_bicycle" depart="1772.08" departLane="best" from="-429285996#0" to="-23111989#0"/>
    <trip id="bike259" type="bike_bicycle" depart="1778.95" departLane="best" from="-143317262#0" to="23777646#0"/>
    <trip id="bike260" type="bike_bicycle" depart="1785.82" departLane="best" from="991678975#1" to="-701539493#0"/>
    <trip id="bike261" type="bike_bicycle" depart="1792.69" departLane="best" from="38128450#6" to="457679328#0"/>
    <trip id="bike262" type="bike_bicycle" depart="1799.56" departLane="best" from="38128457" to="429289421#2"/>
    <trip id="bike263" type="bike_bicycle" depart="1806.43" departLane="best" from="894865200#0" to="-384467501"/>
    <trip id="bike264" type="bike_bicycle" depart="1813.30" departLane="best" from="-143317263" to="-38128423#2"/>
    <trip id="bike265" type="bike_bicycle" depart="1820.16" departLane="best" from="-38128390" to="384394376"/>
    <trip id="bike266" type="bike_bicycle" depart="1827.03" departLane="best" from="343772112#0" to="-38508049#1"/>
    <trip id="bike268" type="bike_bicycle" depart="1840.77" departLane="best" from="-38128436#1" to="38128400"/>
    <trip id="bike269" type="bike_bicycle" depart="1847.64" departLane="best" from="429287688#9" to="-38128383#10"/>
    <trip id="bike270" type="bike_bicycle" depart="1854.51" departLane="best" from="534916585#0" to="931227066"/>
    <trip id="bike271" type="bike_bicycle" depart="1861.37" departLane="best" from="-379489449" to="-143317268#4"/>
    <trip id="bike272" type="bike_bicycle" depart="1868.24" departLane="best" from="-57400731#1" to="384467506#1"/>
    <trip id="bike273" type="bike_bicycle" depart="1875.11" departLane="best" from="90200380#1" to="-890644036#6"/>
    <trip id="bike274" type="bike_bicycle" depart="1881.98" departLane="best" from="42043536#19" to="-179127857#1"/>
    <trip id="bike275" type="bike_bicycle" depart="1888.85" departLane="best" from="38508047#1" to="38128427#2"/>
    <trip id="bike276" type="bike_bicycle" depart="1895.72" departLane="best" from="-343772115#0" to="444110747"/>
    <trip id="bike277" type="bike_bicycle" depart="1902.59" departLane="best" from="686936968#0" to="38128394#4"/>
    <trip id="bike278" type="bike_bicycle" depart="1909.45" departLane="best" from="-38128384#3" to="943972944#2"/>
    <trip id="bike279" type="bike_bicycle" depart="1916.32" departLane="best" from="457679328#3" to="-694559951"/>