<?xml version="1.0" encoding="UTF-8"?>

<!-- generated on 03/09/22 13:33:42 by Eclipse SUMO polyconvert Version 1.5.0
<configuration xmlns:xsi="http://www.w3.org/2001/XMLSchema-instance" xsi:noNamespaceSchemaLocation="http://sumo.dlr.de/xsd/polyconvertConfiguration.xsd">

    <input>
        <net-file value="osm.net.xml"/>
        <osm-files value="osm_bbox.osm.xml"/>
        <osm.keep-full-type value="true"/>
        <type-file value="C:\Program%20Files%20(x86)\Eclipse\Sumo\data\typemap\osmPolyconvert.typ.xml"/>
    </input>

    <output>
        <output-file value="osm.poly.xml"/>
    </output>

    <processing>
        <poi-layer-offset value="5"/>
    </processing>

    <report>
        <verbose value="true"/>
    </report>

</configuration>
-->

<additional xmlns:xsi="http://www.w3.org/2001/XMLSchema-instance" xsi:noNamespaceSchemaLocation="http://sumo.dlr.de/xsd/additional_file.xsd">
    <location netOffset="-584257.37,-5961118.23" convBoundary="-756.17,-6283.63,12190.15,4974.47" origBoundary="-1.731224,53.733239,-1.537916,53.836339" projParameter="+proj=utm +zone=30 +ellps=WGS84 +datum=WGS84 +units=m +no_defs"/>

    <poly id="1002208542" type="natural.wood" color="140,196,107" fill="1" layer="-4.00" shape="2557.222409,1452.239516 2579.256410,1455.119320 2588.825808,1434.664603 2599.352758,1409.831885 2631.215273,1378.340138 2625.531466,1370.477842 2600.559246,1392.760720 2574.515184,1424.883785 2556.332442,1443.052996 2557.222409,1452.239516"/>
    <poly id="1002208543" type="landuse.grass" color="194,194,130" fill="1" layer="-3.00" shape="2338.556287,1387.065404 2319.303035,1413.996160 2341.266397,1445.240369 2366.696368,1455.404551 2359.449843,1436.229211 2372.441454,1431.183853 2391.265225,1454.802667 2430.981545,1466.467310 2434.940647,1452.963809 2450.748222,1477.228044 2463.596596,1460.728927 2434.544431,1445.912043 2423.621449,1434.603126 2338.556287,1387.065404"/>
    <poly id="1002208544" type="natural.wood" color="140,196,107" fill="1" layer="-4.00" shape="2338.556287,1387.065404 2344.629310,1378.564356 2365.295924,1393.403328 2506.255634,1458.994296 2444.236851,1542.743901 2424.755964,1516.230355 2372.792635,1488.658550 2321.727557,1479.421678 2314.173914,1496.030351 2312.412220,1514.682672 2300.670239,1528.743249 2278.912071,1520.583766 2270.756752,1503.161195 2241.110459,1510.825447 2276.976962,1424.775102 2302.369465,1437.687001 2319.303035,1413.996160 2341.266397,1445.240369 2366.696368,1455.404551 2359.449843,1436.229211 2372.441454,1431.183853 2391.265225,1454.802667 2430.981545,1466.467310 2434.940647,1452.963809 2450.748222,1477.228044 2463.596596,1460.728927 2434.544431,1445.912043 2423.621449,1434.603126 2338.556287,1387.065404"/>
    <poly id="1025125990" type="building.yes" color="255,230,230" fill="1" layer="-1.00" shape="773.044895,1898.038949 808.758616,1824.517197 853.559827,1844.874453 817.458260,1917.598696 773.044895,1898.038949"/>
    <poly id="1025125991" type="building.yes" color="255,230,230" fill="1" layer="-1.00" shape="845.073791,1762.157425 866.893252,1705.521055 914.157493,1722.340333 892.739185,1778.983805 845.073791,1762.157425"/>
    <poly id="142316576" type="amenity.school" color="237,199,199" fill="1" layer="-1.00" shape="2540.117660,2250.535172 2485.513077,2250.778894 2467.747205,2227.501928 2461.155986,2051.346837 2390.141771,2050.541681 2379.857563,2005.202183 2374.735198,1967.781814 2374.190289,1942.810201 2376.436054,1930.743880 2454.886753,1953.298538 2501.154943,1966.598962 2601.067877,1963.413363 2606.550259,1967.543818 2604.281922,1988.590442 2599.221006,2035.503784 2593.183288,2074.731344 2577.342065,2122.980147 2564.521807,2146.190024 2555.669411,2161.805999 2546.036160,2188.970148 2539.310360,2212.437958 2538.591992,2237.642124 2540.117660,2250.535172"/>
    <poly id="142316615" type="landuse.allotments" color="194,194,130" fill="1" layer="-3.00" shape="2281.349124,1855.756054 2298.400672,1862.604288 2311.228448,1867.760704 2332.402250,1810.306329 2347.832140,1768.526000 2359.885723,1734.072556 2370.201200,1702.424728 2372.548530,1694.833995 2371.814875,1685.372197 2352.090156,1678.785784 2347.871552,1679.297438 2349.727388,1693.965960 2340.673639,1697.337121 2281.349124,1855.756054"/>
    <poly id="142316618" type="landuse.commercial" color="209,209,204" fill="1" layer="-3.00" shape="2392.839265,1771.085056 2386.798863,1781.400606 2373.868274,1846.463709 2367.439733,1878.795638 2382.581469,1913.686318 2384.672250,1918.510384 2439.137914,1933.063879 2458.614176,1941.971970 2507.067969,1953.921921 2570.823561,1951.978730 2580.106663,1935.892246 2574.340137,1925.780465 2573.356328,1918.817917 2573.316026,1885.531404 2532.721039,1811.784711 2495.885560,1800.873679 2472.453731,1794.251321 2392.839265,1771.085056"/>
    <poly id="142319056" type="building.retail" color="255,230,230" fill="1" layer="-1.00" shape="3139.906536,1703.687715 3162.456562,1699.680180 3178.602464,1696.810497 3173.377365,1667.310796 3159.534639,1589.284715 3120.419201,1594.596259 3139.906536,1703.687715"/>
    <poly id="142319056#1" type="shop.outdoor" color="237,199,255" fill="1" layer="-1.00" shape="3139.906536,1703.687715 3162.456562,1699.680180 3178.602464,1696.810497 3173.377365,1667.310796 3159.534639,1589.284715 3120.419201,1594.596259 3139.906536,1703.687715"/>
    <poly id="142725086" type="natural.water" color="181,209,209" fill="1" layer="-4.00" shape="1694.204555,1729.630151 1688.816942,1708.108573 1682.651587,1695.208481 1674.921877,1685.707240 1671.238417,1682.913024 1666.539424,1679.821929 1661.834945,1677.387325 1657.445585,1672.142988 1652.666327,1669.117204 1645.359430,1672.087789 1639.844196,1671.474522 1636.774198,1669.348194 1634.138950,1671.881599 1626.001144,1673.112017 1620.587623,1676.284357 1616.017957,1680.852148 1612.640641,1686.131818 1611.327883,1691.616346 1612.438317,1697.145388 1615.067550,1704.260333 1616.897782,1708.255728 1613.025632,1712.146364 1612.267815,1715.749229 1615.138181,1719.418746 1607.425380,1725.486802 1603.895907,1729.728726 1600.087132,1730.170679 1598.964274,1725.676369 1595.479149,1727.504213 1594.356625,1731.957282 1589.326915,1733.244847 1586.393202,1733.024040 1583.551677,1728.142056 1578.975512,1732.709762 1572.398150,1733.623940 1568.335860,1738.546077 1591.653792,1750.726055 1598.590276,1753.568830 1601.540525,1749.661248 1604.045019,1754.959939 1607.303476,1757.223253 1605.705148,1762.836078 1615.638006,1767.147251 1624.739984,1770.074364 1632.804847,1772.804381 1639.198292,1772.576881 1644.155192,1775.249804 1661.927390,1775.921437 1664.651590,1777.863371 1673.686584,1774.757661 1678.519713,1774.846516 1679.832531,1769.362006 1677.878629,1762.782479 1679.515035,1758.327748 1683.485590,1758.400749 1684.925234,1755.333474 1683.938855,1752.377393 1686.739192,1750.537023 1690.189564,1750.600466 1691.477036,1746.495436 1689.310821,1742.148845 1693.893187,1736.891387 1694.204555,1729.630151"/>
    <poly id="142725091" type="landuse.residential" color="235,235,227" fill="1" layer="-3.00" shape="1100.289863,1292.702065 1115.903447,1303.459121 1133.559140,1336.933482 1097.649766,1351.790877 1121.171991,1451.420165 1125.580508,1470.085339 1134.866472,1472.002136 1138.407977,1472.856956 1156.975282,1477.302606 1152.554531,1492.122946 1168.129465,1495.579173 1172.241851,1482.856506 1207.384126,1490.821445 1268.954392,1246.373947 1249.745195,1239.879614 1244.819612,1248.058032 1234.060370,1227.618455 1100.289863,1292.702065"/>
    <poly id="142725092" type="landuse.recreation_ground" color="194,194,130" fill="1" layer="-3.00" shape="1490.594271,1814.462817 1492.504289,1839.603903 1489.362272,1864.385223 1525.432946,2034.757793 1596.777584,2025.451129 1604.334534,1999.515692 1592.027697,1980.682645 1599.313121,1912.876513 1623.069460,1915.483026 1646.602313,1918.063295 1649.591424,1902.004052 1660.902196,1890.460174 1665.318238,1851.602454 1606.998220,1839.457805 1529.540815,1824.937214 1490.594271,1814.462817"/>
    <poly id="142725093" type="landuse.farmland" color="194,194,130" fill="1" layer="-3.00" shape="1488.156861,2051.801592 1506.294739,2028.897928 1470.902493,1867.463081 1469.447253,1836.554621 1470.609685,1809.088386 1482.114205,1769.013996 1483.851321,1747.567730 1467.409455,1726.789605 1445.601693,1705.868642 1404.189770,1633.608559 1391.640756,1600.571625 1366.307394,1607.730578 1341.704195,1607.035151 1271.142803,1595.905924 1228.235043,1668.992328 1230.768710,1677.763445 1203.468670,1716.870733 1224.338846,1808.562085 1238.748071,1830.314854 1279.122974,2007.140651 1280.068007,2011.286640 1397.973720,2031.385199 1488.156861,2051.801592"/>
    <poly id="142725094" type="landuse.recreation_ground" color="194,194,130" fill="1" layer="-3.00" shape="1634.008839,1349.851768 1452.111891,1282.880238 1350.459580,1245.461973 1322.588876,1329.951526 1262.935854,1308.895277 1253.213475,1348.468583 1252.743646,1350.385227 1219.889914,1484.161532 1274.218752,1501.236013 1271.759201,1513.254355 1307.857555,1523.307464 1271.142803,1595.905924 1341.704195,1607.035151 1366.307394,1607.730578 1391.640756,1600.571625 1423.406489,1596.468644 1450.742436,1668.348362 1515.315510,1646.774887 1546.633921,1636.888814 1605.183732,1648.502681 1626.834136,1639.964176 1691.376199,1661.704949 1754.633994,1697.723226 1772.716767,1624.629614 1742.492387,1608.671498 1764.833239,1539.729261 1791.349235,1551.045397 1799.148096,1523.156067 1600.963031,1461.565353 1634.008839,1349.851768"/>
    <poly id="142725096" type="landuse.industrial" color="209,209,204" fill="1" layer="-3.00" shape="1262.935854,1308.895277 1284.077437,1228.844970 1292.312824,1224.477476 1350.459580,1245.461973 1322.588876,1329.951526 1262.935854,1308.895277"/>
    <poly id="142725097" type="landuse.farmland" color="194,194,130" fill="1" layer="-3.00" shape="875.128405,1998.362395 893.472277,1990.383545 1025.626389,1899.658326 1036.304978,1877.551593 1088.579734,1834.470179 1195.257914,1724.265776 1196.135266,1683.840684 1187.404258,1655.192006 1183.263598,1586.219514 1207.384126,1490.821445 1172.241851,1482.856506 1168.129465,1495.579173 1152.554531,1492.122946 1156.975282,1477.302606 1138.407977,1472.856956 1134.866472,1472.002136 1125.580508,1470.085339 1121.171991,1451.420165 1097.649766,1351.790877 1061.845178,1311.831318 931.760493,1375.551314 931.565196,1383.014993 947.283919,1430.653326 956.181101,1471.612669 961.005696,1503.261115 965.031583,1536.441873 967.737209,1578.445747 963.750691,1628.017427 958.059717,1664.860389 947.343638,1702.390753 944.002041,1728.159156 890.420248,1827.094694 865.801574,1896.032641 864.441831,1901.616655 855.512551,1938.389624 844.927236,1993.049381 875.128405,1998.362395"/>
    <poly id="142725100" type="waterway.stream" color="181,209,209" fill="0" layer="-4.00" shape="1694.204555,1729.630151 1711.886916,1733.405190 1733.072380,1737.956970"/>
    <poly id="142725103" type="waterway.stream" color="181,209,209" fill="0" layer="-4.00" shape="1690.149073,1771.788535 1694.959484,1763.441526 1694.344436,1759.635371 1697.991370,1758.322490 1705.843122,1744.344716 1709.245876,1737.685635 1711.886916,1733.405190"/>
    <poly id="142725104" type="leisure.pitch" color="207,245,201" fill="1" layer="-2.00" shape="1532.452326,1373.771848 1545.073148,1360.170673 1563.480655,1357.181121 1603.299134,1367.727672 1612.395125,1373.893040 1618.595831,1384.545695 1602.125227,1440.609350 1588.812209,1446.708135 1572.388286,1447.519412 1541.145379,1437.787076 1526.852474,1428.365965 1523.487418,1416.819540 1524.034418,1400.292535 1532.452326,1373.771848"/>
    <poly id="142725104#1" type="sport.cricket" color="79,230,125" fill="1" layer="-2.00" shape="1532.452326,1373.771848 1545.073148,1360.170673 1563.480655,1357.181121 1603.299134,1367.727672 1612.395125,1373.893040 1618.595831,1384.545695 1602.125227,1440.609350 1588.812209,1446.708135 1572.388286,1447.519412 1541.145379,1437.787076 1526.852474,1428.365965 1523.487418,1416.819540 1524.034418,1400.292535 1532.452326,1373.771848"/>
    <poly id="142725106" type="leisure.pitch" color="207,245,201" fill="1" layer="-2.00" shape="1850.154724,1943.921360 1847.500337,1929.260618 1848.289194,1917.545614 1852.191402,1904.875265 1856.951969,1896.382827 1863.565919,1888.469843 1872.257567,1881.474313 1885.519550,1875.241871 1900.748103,1872.740409 1915.746060,1874.530383 1926.499400,1878.612529 1935.957746,1884.696224 1943.921074,1892.555200 1950.626871,1902.883801 1954.887415,1914.725314 1956.218043,1930.073939 1953.667274,1943.737325 1946.242074,1958.490439 1937.348539,1968.219744 1926.711481,1975.346209 1914.482741,1979.850388 1900.406722,1981.304696 1889.157883,1979.817562 1875.939460,1974.766394 1865.160129,1967.100472 1857.334181,1958.220331 1850.154724,1943.921360"/>
    <poly id="142725106#1" type="sport.cricket" color="79,230,125" fill="1" layer="-2.00" shape="1850.154724,1943.921360 1847.500337,1929.260618 1848.289194,1917.545614 1852.191402,1904.875265 1856.951969,1896.382827 1863.565919,1888.469843 1872.257567,1881.474313 1885.519550,1875.241871 1900.748103,1872.740409 1915.746060,1874.530383 1926.499400,1878.612529 1935.957746,1884.696224 1943.921074,1892.555200 1950.626871,1902.883801 1954.887415,1914.725314 1956.218043,1930.073939 1953.667274,1943.737325 1946.242074,1958.490439 1937.348539,1968.219744 1926.711481,1975.346209 1914.482741,1979.850388 1900.406722,1981.304696 1889.157883,1979.817562 1875.939460,1974.766394 1865.160129,1967.100472 1857.334181,1958.220331 1850.154724,1943.921360"/>
    <poly id="142725108" type="natural.wood" color="140,196,107" fill="1" layer="-4.00" shape="1404.189770,1633.608559 1391.640756,1600.571625 1423.406489,1596.468644 1450.742436,1668.348362 1463.765040,1687.739415 1475.933357,1703.064041 1493.801780,1701.377535 1518.089321,1715.299851 1529.816507,1699.734756 1510.456503,1672.860114 1515.315510,1646.774887 1546.633921,1636.888814 1605.183732,1648.502681 1626.834136,1639.964176 1691.376199,1661.704949 1754.633994,1697.723226 1753.814790,1701.792341 1742.120618,1742.730668 1735.557438,1766.502985 1729.411493,1795.168432 1724.308485,1814.048791 1709.245059,1875.613249 1701.971007,1902.599822 1691.388678,1938.283762 1662.319124,1923.382301 1646.602313,1918.063295 1649.591424,1902.004052 1660.902196,1890.460174 1665.318238,1851.602454 1606.998220,1839.457805 1529.540815,1824.937214 1490.594271,1814.462817 1470.609685,1809.088386 1482.114205,1769.013996 1483.851321,1747.567730 1467.409455,1726.789605 1445.601693,1705.868642 1404.189770,1633.608559"/>
    <poly id="142725109" type="leisure.pitch" color="207,245,201" fill="1" layer="-2.00" shape="1429.670214,1330.566459 1399.183144,1417.222219 1342.179417,1397.259543 1372.672322,1310.592419 1429.670214,1330.566459"/>
    <poly id="142725111" type="leisure.pitch" color="207,245,201" fill="1" layer="-2.00" shape="1582.035145,1572.191820 1614.249970,1476.966518 1676.882789,1498.059877 1644.666802,1593.284761 1582.035145,1572.191820"/>
    <poly id="142725111#1" type="sport.soccer" color="79,230,125" fill="1" layer="-2.00" shape="1582.035145,1572.191820 1614.249970,1476.966518 1676.882789,1498.059877 1644.666802,1593.284761 1582.035145,1572.191820"/>
    <poly id="142725112" type="leisure.pitch" color="207,245,201" fill="1" layer="-2.00" shape="1489.910813,1494.793426 1572.388324,1521.424218 1554.876537,1575.410120 1472.399902,1548.779627 1489.910813,1494.793426"/>
    <poly id="142725112#1" type="sport.soccer" color="79,230,125" fill="1" layer="-2.00" shape="1489.910813,1494.793426 1572.388324,1521.424218 1554.876537,1575.410120 1472.399902,1548.779627 1489.910813,1494.793426"/>
    <poly id="142725114" type="leisure.pitch" color="207,245,201" fill="1" layer="-2.00" shape="1507.644082,1437.684238 1590.122523,1464.315332 1572.610142,1518.312292 1490.132781,1491.670372 1507.644082,1437.684238"/>
    <poly id="142725114#1" type="sport.soccer" color="79,230,125" fill="1" layer="-2.00" shape="1507.644082,1437.684238 1590.122523,1464.315332 1572.610142,1518.312292 1490.132781,1491.670372 1507.644082,1437.684238"/>
    <poly id="142725115" type="leisure.pitch" color="207,245,201" fill="1" layer="-2.00" shape="1404.211779,1435.420519 1370.897739,1530.103972 1308.619953,1508.286750 1341.932855,1413.602867 1404.211779,1435.420519"/>
    <poly id="142725117" type="leisure.pitch" color="207,245,201" fill="1" layer="-2.00" shape="1664.032228,1602.999806 1700.718177,1502.571164 1766.767767,1526.599751 1730.080753,1627.016766 1664.032228,1602.999806"/>
    <poly id="142725117#1" type="sport.soccer" color="79,230,125" fill="1" layer="-2.00" shape="1664.032228,1602.999806 1700.718177,1502.571164 1766.767767,1526.599751 1730.080753,1627.016766 1664.032228,1602.999806"/>
    <poly id="142725118" type="leisure.pitch" color="207,245,201" fill="1" layer="-2.00" shape="1901.416870,1801.440705 1989.664567,1843.364863 1965.649695,1893.679341 1877.402971,1851.744501 1901.416870,1801.440705"/>
    <poly id="142725118#1" type="sport.soccer" color="79,230,125" fill="1" layer="-2.00" shape="1901.416870,1801.440705 1989.664567,1843.364863 1965.649695,1893.679341 1877.402971,1851.744501 1901.416870,1801.440705"/>
    <poly id="142725120" type="leisure.pitch" color="207,245,201" fill="1" layer="-2.00" shape="1542.021426,1633.743793 1455.082892,1659.747672 1437.978832,1602.845348 1524.911719,1576.841023 1542.021426,1633.743793"/>
    <poly id="142725120#1" type="sport.soccer" color="79,230,125" fill="1" layer="-2.00" shape="1542.021426,1633.743793 1455.082892,1659.747672 1437.978832,1602.845348 1524.911719,1576.841023 1542.021426,1633.743793"/>
    <poly id="142725121" type="leisure.pitch" color="207,245,201" fill="1" layer="-2.00" shape="1336.052097,1391.560819 1308.852011,1489.850993 1244.201159,1472.042007 1271.406751,1373.740467 1336.052097,1391.560819"/>
    <poly id="142725121#1" type="sport.soccer" color="79,230,125" fill="1" layer="-2.00" shape="1336.052097,1391.560819 1308.852011,1489.850993 1244.201159,1472.042007 1271.406751,1373.740467 1336.052097,1391.560819"/>
    <poly id="142725123" type="leisure.pitch" color="207,245,201" fill="1" layer="-2.00" shape="1489.288789,1475.195750 1458.663857,1565.042515 1399.569194,1544.985094 1430.193094,1455.137955 1489.288789,1475.195750"/>
    <poly id="142725123#1" type="sport.soccer" color="79,230,125" fill="1" layer="-2.00" shape="1489.288789,1475.195750 1458.663857,1565.042515 1399.569194,1544.985094 1430.193094,1455.137955 1489.288789,1475.195750"/>
    <poly id="142734340" type="amenity.parking" color="184,184,179" fill="1" layer="-1.00" shape="756.025863,1067.075017 738.137879,1061.029734 724.286725,1100.005915 703.708612,1155.719561 692.290367,1188.085197 710.234842,1193.897646 744.486903,1157.862989 756.331174,1188.314503 845.966563,1154.078128 817.548804,1068.194126 794.201693,1056.963565 756.025863,1067.075017"/>
    <poly id="143236674" type="leisure.golf_course" color="207,245,201" fill="1" layer="-2.00" shape="1256.805074,420.125210 1389.651080,458.423686 1462.178339,491.557981 1471.711282,495.917071 1549.373075,531.394855 1564.675292,538.386190 1598.951716,554.038944 1593.776647,568.199602 1591.806251,573.605288 1590.578380,576.965824 1555.691344,672.498383 1532.800568,732.250409 1518.606739,724.489365 1495.397398,721.181364 1480.176443,777.335102 1404.874449,980.764639 1360.799618,962.129393 1367.781909,947.434041 1348.175752,847.775057 1336.012434,839.584343 1249.935994,617.052427 1187.011293,534.385745 1152.345005,515.112162 1122.562631,483.820187 1142.869675,471.148381 1157.508420,436.950722 1194.635100,423.651588 1256.805074,420.125210"/>
    <poly id="143236690" type="building.leisure" color="255,230,230" fill="1" layer="-1.00" shape="1125.382226,924.015839 1145.231276,977.071937 1229.584885,945.650804 1209.729842,892.605348 1125.382226,924.015839"/>
    <poly id="150387783" type="landuse.residential" color="235,235,227" fill="1" layer="-3.00" shape="1824.096638,1250.052646 1726.407418,1213.956652 1644.492543,1183.694582 1637.563874,1182.532322 1628.722937,1182.904069 1621.616257,1184.976974 1616.085286,1188.058146 1610.250807,1192.958834 1605.546981,1199.427165 1590.586807,1241.018081 1570.554023,1296.626926 1567.950959,1303.857217 1682.906432,1346.332377 1761.422157,1375.353038 1781.921357,1378.623707 1785.986951,1379.277222 1789.003179,1379.321610 1796.596123,1379.450246 1806.856701,1351.684142 1822.168894,1345.444716 1843.720954,1363.447025 1854.092473,1358.285211 1893.830982,1295.929423 1904.549290,1279.111349 1824.096638,1250.052646"/>
    <poly id="150387791" type="landuse.residential" color="235,235,227" fill="1" layer="-3.00" shape="1726.407418,1213.956652 1824.096638,1250.052646 1904.549290,1279.111349 1946.291148,1211.072806 1883.612797,1157.257057 1913.418639,1124.220270 1936.066307,1139.650212 1943.988181,1158.047148 1965.954650,1174.321585 2014.187777,1093.405137 1990.442773,1069.608133 2036.629824,985.048481 1997.938469,936.125489 1987.828670,944.897501 1963.867659,927.762699 1936.449084,919.845519 1917.435448,918.437824 1885.944137,901.287063 1874.408587,875.167221 1876.710832,857.481813 1906.123241,804.061272 1868.794921,754.663775 1838.017725,791.689284 1789.167472,849.949516 1747.983204,901.251210 1752.047638,904.497618 1739.631914,920.461304 1741.862893,938.141118 1829.707579,1002.211279 1793.966187,1058.498222 1735.782579,1143.351376 1713.718708,1176.030832 1726.407418,1213.956652"/>
    <poly id="154946358" type="landuse.industrial" color="209,209,204" fill="1" layer="-3.00" shape="2718.053351,1570.143462 2709.859737,1570.803408 2705.925208,1526.293537 2701.672249,1522.975985 2698.883138,1498.685919 2766.595385,1506.411715 2808.956402,1506.521661 2811.413450,1506.522910 2858.421528,1504.705576 2849.276716,1532.011806 2840.443749,1551.778636 2841.746195,1578.745372 2795.366552,1585.059402 2793.379848,1566.170472 2771.512944,1568.500959 2763.517203,1566.315561 2718.053351,1570.143462"/>
    <poly id="154946358#1" type="man_made.works" color="255,230,230" fill="1" layer="-1.00" shape="2718.053351,1570.143462 2709.859737,1570.803408 2705.925208,1526.293537 2701.672249,1522.975985 2698.883138,1498.685919 2766.595385,1506.411715 2808.956402,1506.521661 2811.413450,1506.522910 2858.421528,1504.705576 2849.276716,1532.011806 2840.443749,1551.778636 2841.746195,1578.745372 2795.366552,1585.059402 2793.379848,1566.170472 2771.512944,1568.500959 2763.517203,1566.315561 2718.053351,1570.143462"/>
    <poly id="154946359" type="building.commercial" color="255,230,230" fill="1" layer="-1.00" shape="3016.335252,1560.690311 3014.564073,1550.062755 3031.962152,1547.182546 3032.666617,1551.435722 3057.135156,1547.374458 3059.332980,1560.547338 3033.338188,1564.858305 3032.206972,1558.059824 3016.335252,1560.690311"/>
    <poly id="154946361" type="building.commercial" color="255,230,230" fill="1" layer="-1.00" shape="3079.573568,1560.658371 3070.948690,1519.165364 3094.920434,1514.204718 3102.306212,1549.731908 3105.394497,1549.088517 3106.633184,1555.065506 3079.573568,1560.658371"/>
    <poly id="154946372" type="building.industrial" color="255,230,230" fill="1" layer="-1.00" shape="2945.048156,1497.117338 2975.386841,1491.963253 2978.242640,1508.720665 2947.904060,1513.874731 2945.048156,1497.117338"/>
    <poly id="154946373" type="building.industrial" color="255,230,230" fill="1" layer="-1.00" shape="2912.629860,1502.522183 2942.968469,1497.367888 2945.830965,1514.125403 2915.492460,1519.279678 2912.629860,1502.522183"/>
    <poly id="154946374" type="building.commercial" color="255,230,230" fill="1" layer="-1.00" shape="2465.089885,1609.969255 2471.932867,1598.310996 2484.033238,1577.736112 2493.312735,1583.161026 2495.834468,1584.643419 2476.891059,1616.876516 2465.089885,1609.969255"/>
    <poly id="154946375" type="building.industrial" color="255,230,230" fill="1" layer="-1.00" shape="2889.392740,1504.481590 2894.494373,1535.058087 2873.607236,1538.530362 2868.505680,1507.942764 2889.392740,1504.481590"/>
    <poly id="154946376" type="building.industrial" color="255,230,230" fill="1" layer="-1.00" shape="3094.920434,1514.204718 3094.069417,1510.393939 3104.203368,1509.548350 3101.703916,1483.616356 3045.396598,1490.588205 3047.633333,1509.793541 3068.428713,1507.722533 3070.948690,1519.165364 3094.920434,1514.204718"/>
    <poly id="154946408" type="waterway.stream" color="181,209,209" fill="0" layer="-4.00" shape="2843.077661,1549.357152 2861.170496,1551.252319 2867.228359,1550.675245 2872.265082,1549.044181 2875.789432,1545.148072 2881.019927,1542.663722 2885.336412,1542.566129 2889.255726,1545.399100 2895.420514,1548.273939 2904.046839,1548.434777 2917.222002,1545.575562 2922.908470,1546.193529 2929.974463,1547.015291 2939.231357,1550.804769"/>
    <poly id="154946409" type="waterway.stream" color="181,209,209" fill="0" layer="-4.00" shape="2966.912259,1539.090795 2993.963342,1521.600580"/>
    <poly id="154946410" type="waterway.stream" color="181,209,209" fill="0" layer="-4.00" shape="2993.963342,1521.600580 3002.884515,1516.202770"/>
    <poly id="154946411" type="waterway.stream" color="181,209,209" fill="0" layer="-4.00" shape="3002.884515,1516.202770 3012.083649,1510.031159 3021.578258,1501.795152 3025.437401,1496.558834"/>
    <poly id="167357912" type="amenity.cafe" color="237,199,199" fill="1" layer="-1.00" shape="1188.736867,1207.114605 1192.919356,1195.617373 1209.424149,1201.594626 1205.241623,1213.091844 1188.736867,1207.114605"/>
    <poly id="167357912#1" type="building.yes" color="255,230,230" fill="1" layer="-1.00" shape="1188.736867,1207.114605 1192.919356,1195.617373 1209.424149,1201.594626 1205.241623,1213.091844 1188.736867,1207.114605"/>
    <poly id="167357912#2" type="landuse.brownfield" color="194,194,130" fill="1" layer="-3.00" shape="1188.736867,1207.114605 1192.919356,1195.617373 1209.424149,1201.594626 1205.241623,1213.091844 1188.736867,1207.114605"/>
    <poly id="178661962" type="man_made.reservoir_covered" color="255,230,230" fill="1" layer="-1.00" shape="2500.747099,900.313103 2490.700733,919.457105 2491.516646,936.910787 2504.727091,982.638576 2599.434082,956.542064 2577.273960,877.673653 2557.799650,882.620371 2555.740985,875.693531 2516.138143,889.603644 2512.402078,896.734524 2500.747099,900.313103"/>
    <poly id="179058353" type="building.residential" color="255,230,230" fill="1" layer="-1.00" shape="2703.846032,1692.583573 2698.731734,1661.216938 2718.974065,1658.021247 2720.470077,1667.185702 2711.643171,1668.612862 2713.618123,1680.713059 2727.545650,1678.457140 2726.227121,1670.375464 2736.124494,1668.767938 2739.074689,1686.862382 2703.846032,1692.583573"/>
    <poly id="187114683" type="landuse.residential" color="235,235,227" fill="1" layer="-3.00" shape="1665.648439,2013.863222 1629.125292,2006.381240 1629.637794,1978.491311 1617.661509,1973.574992 1623.069460,1915.483026 1646.602313,1918.063295 1662.319124,1923.382301 1691.388678,1938.283762 1669.241388,2002.578122 1665.648439,2013.863222"/>
    <poly id="187114685" type="leisure.pitch" color="207,245,201" fill="1" layer="-2.00" shape="1522.887255,2014.123212 1579.698338,2013.997725 1581.928646,1924.475913 1524.244778,1924.006699 1522.887255,2014.123212"/>
    <poly id="187114685#1" type="sport.soccer" color="79,230,125" fill="1" layer="-2.00" shape="1522.887255,2014.123212 1579.698338,2013.997725 1581.928646,1924.475913 1524.244778,1924.006699 1522.887255,2014.123212"/>
    <poly id="187114686" type="leisure.pitch" color="207,245,201" fill="1" layer="-2.00" shape="1523.852884,1897.268681 1529.842873,1843.649883 1618.776663,1857.312984 1612.549697,1908.000529 1523.852884,1897.268681"/>
    <poly id="187114686#1" type="sport.soccer" color="79,230,125" fill="1" layer="-2.00" shape="1523.852884,1897.268681 1529.842873,1843.649883 1618.776663,1857.312984 1612.549697,1908.000529 1523.852884,1897.268681"/>
    <poly id="241944953" type="natural.wood" color="140,196,107" fill="1" layer="-4.00" shape="2625.713950,1328.403867 2628.059418,1332.286837 2648.169184,1315.032873 2672.115071,1297.672263 2694.329286,1281.336783 2713.007388,1268.118411 2738.708952,1250.957720 2769.132081,1233.551197 2811.527915,1215.299480 2850.252809,1200.685579 2885.280395,1188.996681 2939.481603,1172.557560 3006.455940,1153.352717 3006.971154,1151.514977 3005.088101,1146.516448 2927.540440,1165.357194 2843.168794,1184.183355 2778.366972,1201.761654 2743.715476,1221.582249 2660.856451,1281.749292 2623.688385,1323.258180 2625.713950,1328.403867"/>
    <poly id="26446485" type="landuse.grass" color="194,194,130" fill="1" layer="-3.00" shape="908.664554,1036.022338 913.845113,1051.796786 926.366358,1072.167517 947.235170,1084.533206 1081.928559,1128.243318 1093.190168,1125.544351 1101.607777,1117.329377 1102.217181,1101.270910 1065.001591,990.875465 1045.021489,931.596497 1036.207873,918.893863 1023.250546,911.958137 1006.532379,913.277996 922.579033,995.111451 910.248584,1020.671588 908.664554,1036.022338"/>
    <poly id="27246900" type="landuse.retail" color="194,194,130" fill="1" layer="-3.00" shape="2948.441487,1389.722320 2973.121735,1419.896299 2990.730883,1427.614347 2995.888570,1427.276594 2996.189587,1431.266272 3121.642787,1428.345662 3131.031884,1441.630743 3176.975677,1460.841013 3181.843173,1461.577519 3276.526390,1465.675399 3297.284032,1414.638496 3316.874133,1371.091664 3345.406909,1341.801387 3362.348103,1301.844172 3367.396185,1173.803137 3178.916749,1189.048395 3065.677069,1204.682122 3049.567954,1206.907464 2999.424941,1218.747016 2984.411149,1222.295077 2917.263042,1238.158371 2901.600899,1241.861534 2910.072020,1243.310396 2920.867207,1247.306559 2930.379975,1253.304244 2938.748674,1259.536570 2944.593521,1268.281425 2947.619658,1276.628719 2948.310973,1286.891106 2947.001740,1302.691632 2945.560299,1323.108083 2944.749706,1337.604730 2941.922259,1370.170079 2943.875600,1379.521200 2948.441487,1389.722320"/>