<?xml version="1.0" encoding="UTF-8"?>

<!-- generated on 03/09/22 13:33:44 by Eclipse SUMO duarouter Version 1.5.0
<configuration xmlns:xsi="http://www.w3.org/2001/XMLSchema-instance" xsi:noNamespaceSchemaLocation="http://sumo.dlr.de/xsd/duarouterConfiguration.xsd">

    <input>
        <net-file value="C:\Users\Ed\AutoModModels\Sumo\2022-03-09-13-33-32\osm.net.xml"/>
        <route-files value="C:\Users\Ed\AutoModModels\Sumo\2022-03-09-13-33-32\osm.passenger.trips.xml"/>
    </input>

    <output>
        <output-file value="C:\Users\Ed\AutoModModels\Sumo\2022-03-09-13-33-32\osm.passenger.trips.xml.tmp"/>
        <write-trips value="true"/>
    </output>

    <time>
        <begin value="0"/>
        <end value="3600.0"/>
    </time>

    <report>
        <no-warnings value="true"/>
        <ignore-errors value="true"/>
        <no-step-log value="true"/>
    </report>

</configuration>
-->

<routes xmlns:xsi="http://www.w3.org/2001/XMLSchema-instance" xsi:noNamespaceSchemaLocation="http://sumo.dlr.de/xsd/routes_file.xsd">
    <vType id="veh_passenger" vClass="passenger"/>
    <trip id="veh1" type="veh_passenger" depart="4.15" departLane="best" from="-57190153" to="-38300057#0"/>
    <trip id="veh2" type="veh_passenger" depart="8.31" departLane="best" from="38508055" to="384392308#1"/>
    <trip id="veh3" type="veh_passenger" depart="12.46" departLane="best" from="6016588#1" to="-23111989#1"/>
    <trip id="veh4" type="veh_passenger" depart="16.62" departLane="best" from="-38300048#1" to="33538172#1"/>
    <trip id="veh6" type="veh_passenger" depart="24.93" departLane="best" departSpeed="max" from="38128483#0" to="38128383#2"/>
    <trip id="veh7" type="veh_passenger" depart="29.08" departLane="best" from="-38300053#1" to="38128425#0"/>
    <trip id="veh8" type="veh_passenger" depart="33.24" departLane="best" from="4769351#3" to="-142725085#4"/>
    <trip id="veh9" type="veh_passenger" depart="37.39" departLane="best" from="4769351#11" to="384467498#0"/>
    <trip id="veh10" type="veh_passenger" depart="41.55" departLane="best" from="-8065814#8" to="-38128420#1"/>
    <trip id="veh11" type="veh_passenger" depart="45.70" departLane="best" from="54653897#0" to="38128431#3"/>
    <trip id="veh12" type="veh_passenger" depart="49.86" departLane="best" from="4769351#13" to="40916607#0"/>
    <trip id="veh14" type="veh_passenger" depart="58.17" departLane="best" from="142725087#1" to="38128384#2"/>
    <trip id="veh15" type="veh_passenger" depart="62.32" departLane="best" from="534916576" to="38128448"/>
    <trip id="veh16" type="veh_passenger" depart="66.48" departLane="best" from="54729945#3" to="38128408"/>
    <trip id="veh17" type="veh_passenger" depart="70.63" departLane="best" from="-384392312#1" to="-686936940#3"/>
    <trip id="veh18" type="veh_passenger" depart="74.79" departLane="best" from="-179123127#2" to="-384467503#2"/>
    <trip id="veh19" type="veh_passenger" depart="78.94" departLane="best" from="-33538172#2" to="-57400726#0"/>
    <trip id="veh22" type="veh_passenger" depart="91.41" departLane="best" from="-54902503#4" to="744686036#0"/>
    <trip id="veh23" type="veh_passenger" depart="95.56" departLane="best" departSpeed="max" from="38128479" to="38128438"/>
    <trip id="veh24" type="veh_passenger" depart="99.71" departLane="best" from="-38128426#1" to="142725087#2"/>
    <trip id="veh26" type="veh_passenger" depart="108.02" departLane="best" from="38128386" to="384392311#0"/>
    <trip id="veh27" type="veh_passenger" depart="112.18" departLane="best" from="544650154#1" to="4769208#3"/>
    <trip id="veh28" type="veh_passenger" depart="116.33" departLane="best" from="-384467501" to="-154946360#3"/>
    <trip id="veh29" type="veh_passenger" depart="120.49" departLane="best" from="-744686036#7" to="-54902503#5"/>
    <trip id="veh31" type="veh_passenger" depart="128.80" departLane="best" from="560402070" to="-744686036#6"/>
    <trip id="veh32" type="veh_passenger" depart="132.95" departLane="best" departSpeed="max" from="38128483#0" to="143317265"/>
    <trip id="veh33" type="veh_passenger" depart="137.11" departLane="best" from="686936940#5" to="179123126#2"/>
    <trip id="veh34" type="veh_passenger" depart="141.26" departLane="best" from="-54902503#0" to="-40916616#1"/>
    <trip id="veh35" type="veh_passenger" depart="145.42" departLane="best" from="38128394#1" to="-4769351#8"/>
    <trip id="veh36" type="veh_passenger" depart="149.57" departLane="best" from="38128421" to="6016588#6"/>
    <trip id="veh37" type="veh_passenger" depart="153.73" departLane="best" from="150387778#1" to="-38300052"/>
    <trip id="veh38" type="veh_passenger" depart="157.88" departLane="best" from="96783559" to="33857819#4"/>
    <trip id="veh39" type="veh_passenger" depart="162.04" departLane="best" from="-23298885#3" to="-154946370#3"/>
    <trip id="veh41" type="veh_passenger" depart="170.35" departLane="best" from="4769209#2" to="154946368#1"/>
    <trip id="veh42" type="veh_passenger" depart="174.50" departLane="best" from="-179123113" to="142725088#1"/>
    <trip id="veh43" type="veh_passenger" depart="178.66" departLane="best" from="943972926#2" to="377158709"/>
    <trip id="veh44" type="veh_passenger" depart="182.81" departLane="best" from="860370169" to="54902503#2"/>
    <trip id="veh45" type="veh_passenger" depart="186.97" departLane="best" from="-142725088#1" to="384467504#1"/>
    <trip id="veh46" type="veh_passenger" depart="191.12" departLane="best" from="384392306#2" to="37982501#4"/>
    <trip id="veh48" type="veh_passenger" depart="199.43" departLane="best" from="29719968#4" to="-38128432#1"/>
    <trip id="veh49" type="veh_passenger" depart="203.58" departLane="best" from="686936940#3" to="57190149"/>
    <trip id="veh52" type="veh_passenger" depart="216.05" departLane="best" from="-1009769903" to="-8065751#5"/>
    <trip id="veh53" type="veh_passenger" depart="220.20" departLane="best" from="-143317260#0" to="694559943#2"/>
    <trip id="veh54" type="veh_passenger" depart="224.36" departLane="best" from="57190131" to="544650154#0"/>
    <trip id="veh55" type="veh_passenger" depart="228.51" departLane="best" from="57190131" to="8065751#1"/>
    <trip id="veh56" type="veh_passenger" depart="232.67" departLane="best" from="-189952179#1" to="23777646#0"/>
    <trip id="veh57" type="veh_passenger" depart="236.82" departLane="best" from="-179123119#0" to="457725786#0"/>
    <trip id="veh58" type="veh_passenger" depart="240.98" departLane="best" from="443006431" to="-38128386"/>
    <trip id="veh59" type="veh_passenger" depart="245.13" departLane="best" from="22880047#8" to="38128384#0"/>
    <trip id="veh61" type="veh_passenger" depart="253.44" departLane="best" from="37999801#1" to="40916607#1"/>
    <trip id="veh64" type="veh_passenger" depart="265.91" departLane="best" from="179058359#2" to="352764035#1"/>
    <trip id="veh65" type="veh_passenger" depart="270.06" departLane="best" from="-38128383#9" to="-384392308#0"/>
    <trip id="veh66" type="veh_passenger" depart="274.22" departLane="best" from="-8065814#5" to="38128424"/>
    <trip id="veh67" type="veh_passenger" depart="278.37" departLane="best" from="-384467502#2" to="-38300053#1"/>
    <trip id="veh69" type="veh_passenger" depart="286.68" departLane="best" from="54654007#2" to="-179123122"/>
    <trip id="veh70" type="veh_passenger" depart="290.84" departLane="best" from="-39428037#3" to="384392306#2"/>
    <trip id="veh72" type="veh_passenger" depart="299.14" departLane="best" from="734423218" to="38128401#1"/>
    <trip id="veh73" type="veh_passenger" depart="303.30" departLane="best" from="22880047#2" to="4769209#3"/>
    <trip id="veh74" type="veh_passenger" depart="307.45" departLane="best" from="4769351#13" to="-38128448"/>
    <trip id="veh75" type="veh_passenger" depart="311.61" departLane="best" from="-26442127#4" to="154946371#0"/>
    <trip id="veh76" type="veh_passenger" depart="315.76" departLane="best" from="154946368#4" to="189952179#1"/>
    <trip id="veh77" type="veh_passenger" depart="319.92" departLane="best" from="384467503#2" to="384392307#0"/>
    <trip id="veh78" type="veh_passenger" depart="324.07" departLane="best" from="150387788#0" to="-8065814#7"/>
    <trip id="veh79" type="veh_passenger" depart="328.23" departLane="best" from="54729945#3" to="-40916616#4"/>
    <trip id="veh80" type="veh_passenger" depart="332.38" departLane="best" from="-38128448" to="179123118#0"/>
    <trip id="veh81" type="veh_passenger" depart="336.54" departLane="best" from="154946368#1" to="-57400726#0"/>
    <trip id="veh82" type="veh_passenger" depart="340.69" departLane="best" from="-457725786#0" to="694559935#0"/>
    <trip id="veh83" type="veh_passenger" depart="344.85" departLane="best" from="179123105#1" to="54902503#2"/>
    <trip id="veh84" type="veh_passenger" depart="349.00" departLane="best" from="38128384#0" to="-154946371#1"/>
    <trip id="veh85" type="veh_passenger" depart="353.16" departLane="best" from="96783580" to="544650155#1"/>
    <trip id="veh86" type="veh_passenger" depart="357.31" departLane="best" from="837266987" to="694559941#1"/>
    <trip id="veh87" type="veh_passenger" depart="361.47" departLane="best" from="54653897#1" to="-38128427#0"/>
    <trip id="veh89" type="veh_passenger" depart="369.78" departLane="best" from="150387784#0" to="-179123103"/>
    <trip id="veh90" type="veh_passenger" depart="373.93" departLane="best" from="142725087#1" to="90200380#2"/>
    <trip id="veh91" type="veh_passenger" depart="378.09" departLane="best" from="-54902503#1" to="4769209#2"/>
    <trip id="veh92" type="veh_passenger" depart="382.24" departLane="best" from="179123124#2" to="154946368#3"/>
    <trip id="veh93" type="veh_passenger" depart="386.40" departLane="best" from="8065814#14" to="943972926#1"/>
    <trip id="veh94" type="veh_passenger" depart="390.55" departLane="best" from="38128384#6" to="384467504#0"/>
    <trip id="veh96" type="veh_passenger" depart="398.86" departLane="best" from="837266987" to="38128416"/>
    <trip id="veh97" type="veh_passenger" depart="403.01" departLane="best" from="38128382" to="4326327#0"/>
    <trip id="veh98" type="veh_passenger" depart="407.17" departLane="best" from="-179123102" to="38128420#1"/>
    <trip id="veh99" type="veh_passenger" depart="411.32" departLane="best" from="29719968#7" to="54729945#2"/>
    <trip id="veh100" type="veh_passenger" depart="415.48" departLane="best" from="-38128422" to="8065814#18"/>
    <trip id="veh101" type="veh_passenger" depart="419.63" departLane="best" from="-179123127#2" to="-38128444#1"/>
    <trip id="veh102" type="veh_passenger" depart="423.79" departLane="best" from="38128427#1" to="384392307#1"/>
    <trip id="veh103" type="veh_passenger" depart="427.94" departLane="best" from="-38508056" to="-38128383#6"/>
    <trip id="veh104" type="veh_passenger" depart="432.10" departLane="best" from="6016588#1" to="-40916616#1"/>
    <trip id="veh106" type="veh_passenger" depart="440.41" departLane="best" from="154946366#1" to="38128420#1"/>
    <trip id="veh107" type="veh_passenger" depart="444.56" departLane="best" from="352764043#1" to="734423218"/>
    <trip id="veh109" type="veh_passenger" depart="452.87" departLane="best" from="-39428037#4" to="150387778#0"/>
    <trip id="veh110" type="veh_passenger" depart="457.03" departLane="best" from="38300053#1" to="-694559941#1"/>
    <trip id="veh111" type="veh_passenger" depart="461.18" departLane="best" from="-744686036#8" to="4362581#4"/>
    <trip id="veh112" type="veh_passenger" depart="465.34" departLane="best" from="96783578#0" to="943972926#2"/>
    <trip id="veh114" type="veh_passenger" depart="473.65" departLane="best" from="-54902503#1" to="71057229"/>
    <trip id="veh116" type="veh_passenger" depart="481.96" departLane="best" from="-96783578#0" to="-38128423#0"/>
    <trip id="veh117" type="veh_passenger" depart="486.11" departLane="best" from="534916585#1" to="384467498#2"/>
    <trip id="veh118" type="veh_passenger" depart="490.26" departLane="best" from="38128439#2" to="90200380#4"/>
    <trip id="veh119" type="veh_passenger" depart="494.42" departLane="best" departSpeed="max" from="38128483#0" to="-142725087#0"/>
    <trip id="veh120" type="veh_passenger" depart="498.57" departLane="best" from="4769353#2" to="-694559941#0"/>
    <trip id="veh121" type="veh_passenger" depart="502.73" departLane="best" from="38128483#2" to="744686036#3"/>
    <trip id="veh122" type="veh_passenger" depart="506.88" departLane="best" from="-38128394#3" to="-38128383#10"/>
    <trip id="veh123" type="veh_passenger" depart="511.04" departLane="best" from="-33857819#7" to="38128384#3"/>
    <trip id="veh124" type="veh_passenger" depart="515.19" departLane="best" from="-57190123" to="38128431#4"/>
    <trip id="veh127" type="veh_passenger" depart="527.66" departLane="best" from="54653897#0" to="-23298885#5"/>
    <trip id="veh129" type="veh_passenger" depart="535.97" departLane="best" from="-142725085#0" to="4769208#1"/>
    <trip id="veh131" type="veh_passenger" depart="544.28" departLane="best" from="39428037#6" to="38128384#2"/>
    <trip id="veh132" type="veh_passenger" depart="548.43" departLane="best" from="154946370#2" to="-142725087#2"/>
    <trip id="veh133" type="veh_passenger" depart="552.59" departLane="best" from="-179123126#0" to="6016588#1"/>
    <trip id="veh134" type="veh_passenger" depart="556.74" departLane="best" from="609509715#1" to="38128383#3"/>
    <trip id="veh135" type="veh_passenger" depart="560.90" departLane="best" from="534916585#1" to="38128419"/>
    <trip id="veh136" type="veh_passenger" depart="565.05" departLane="best" from="-38128408" to="-38128385"/>
    <trip id="veh137" type="veh_passenger" depart="569.21" departLane="best" from="-734423218" to="6016588#6"/>
    <trip id="veh138" type="veh_passenger" depart="573.36" departLane="best" from="4769233#0" to="54902503#2"/>
    <trip id="veh140" type="veh_passenger" depart="581.67" departLane="best" from="-457725786#0" to="-33857819#2"/>
    <trip id="veh141" type="veh_passenger" depart="585.82" departLane="best" from="4769208#2" to="6016588#3"/>
    <trip id="veh143" type="veh_passenger" depart="594.13" departLane="best" from="-38128420#0" to="71057213"/>
    <trip id="veh144" type="veh_passenger" depart="598.29" departLane="best" from="54729971#1" to="90200364#3"/>
    <trip id="veh145" type="veh_passenger" depart="602.44" departLane="best" from="-143317263" to="40916616#2"/>
    <trip id="veh146" type="veh_passenger" depart="606.60" departLane="best" from="4769233#2" to="54902503#6"/>
    <trip id="veh147" type="veh_passenger" depart="610.75" departLane="best" from="4769351#6" to="-54902503#4"/>
    <trip id="veh148" type="veh_passenger" depart="614.91" departLane="best" from="4769209#0" to="-33857819#8"/>
    <trip id="veh149" type="veh_passenger" depart="619.06" departLane="best" from="54902503#6" to="54729988#1"/>
    <trip id="veh150" type="veh_passenger" depart="623.22" departLane="best" from="4769209#3" to="-384392312#1"/>
    <trip id="veh152" type="veh_passenger" depart="631.53" departLane="best" from="8065814#9" to="-57400726#1"/>
    <trip id="veh154" type="veh_passenger" depart="639.84" departLane="best" from="744686036#3" to="-38128383#10"/>
    <trip id="veh155" type="veh_passenger" depart="643.99" departLane="best" from="8065814#3" to="-54902503#1"/>
    <trip id="veh156" type="veh_passenger" depart="648.15" departLane="best" from="-37982501#0" to="166726150#1"/>
    <trip id="veh157" type="veh_passenger" depart="652.30" departLane="best" from="384467503#1" to="-744686036#5"/>
    <trip id="veh158" type="veh_passenger" depart="656.46" departLane="best" from="38128432#1" to="33857819#6"/>
    <trip id="veh159" type="veh_passenger" depart="660.61" departLane="best" from="143317253#1" to="38128406"/>
    <trip id="veh160" type="veh_passenger" depart="664.77" departLane="best" from="-4769351#10" to="384467498#3"/>
    <trip id="veh161" type="veh_passenger" depart="668.92" departLane="best" from="-1038282015" to="694559941#1"/>
    <trip id="veh162" type="veh_passenger" depart="673.08" departLane="best" from="37999801#0" to="384467504#0"/>
    <trip id="veh163" type="veh_passenger" depart="677.23" departLane="best" from="39428037#6" to="384392306#2"/>
    <trip id="veh164" type="veh_passenger" depart="681.38" departLane="best" from="-943972889#1" to="-179123119#2"/>
    <trip id="veh165" type="veh_passenger" depart="685.54" departLane="best" from="38128483#3" to="-8065814#13"/>
    <trip id="veh166" type="veh_passenger" depart="689.69" departLane="best" from="-744686036#5" to="54653902#2"/>
    <trip id="veh167" type="veh_passenger" depart="693.85" departLane="best" from="384467498#3" to="-694559941#1"/>
    <trip id="veh168" type="veh_passenger" depart="698.00" departLane="best" from="-734423218" to="150387790#2"/>
    <trip id="veh170" type="veh_passenger" depart="706.31" departLane="best" from="-38128385" to="154946367#0"/>
    <trip id="veh171" type="veh_passenger" depart="710.47" departLane="best" from="744686036#6" to="384392309#0"/>
    <trip id="veh172" type="veh_passenger" depart="714.62" departLane="best" from="609509715#0" to="38128444#2"/>
    <trip id="veh173" type="veh_passenger" depart="718.78" departLane="best" from="-694559941#2" to="38128383#5"/>
    <trip id="veh174" type="veh_passenger" depart="722.93" departLane="best" from="-1009769903" to="-686936940#13"/>
    <trip id="veh175" type="veh_passenger" depart="727.09" departLane="best" from="154946370#5" to="38128417#0"/>
    <trip id="veh176" type="veh_passenger" depart="731.24" departLane="best" departSpeed="max" from="38128483#0" to="189952178"/>
    <trip id="veh178" type="veh_passenger" depart="739.55" departLane="best" from="22880047#4" to="609509715#0"/>
    <trip id="veh179" type="veh_passenger" depart="743.71" departLane="best" from="4769233#0" to="-38128427#3"/>
    <trip id="veh180" type="veh_passenger" depart="747.86" departLane="best" from="-189952179#0" to="352764035#0"/>
    <trip id="veh182" type="veh_passenger" depart="756.17" departLane="best" from="534916554#0" to="4362581#3"/>
    <trip id="veh183" type="veh_passenger" depart="760.33" departLane="best" from="38300053#3" to="-384392308#0"/>
    <trip id="veh185" type="veh_passenger" depart="768.64" departLane="best" from="-40916612#1" to="22880047#8"/>
    <trip id="veh186" type="veh_passenger" depart="772.79" departLane="best" from="54653897#1" to="-179123124#2"/>
    <trip id="veh189" type="veh_passenger" depart="785.25" departLane="best" departSpeed="max" from="38128483#0" to="-142725085#3"/>
    <trip id="veh190" type="veh_passenger" depart="789.41" departLane="best" from="-33857819#7" to="154946369"/>
    <trip id="veh191" type="veh_passenger" depart="793.56" departLane="best" from="-38128431#3" to="8065814#15"/>
    <trip id="veh192" type="veh_passenger" depart="797.72" departLane="best" from="352764035#1" to="-154946371#1"/>
    <trip id="veh193" type="veh_passenger" depart="801.87" departLane="best" from="-40916616#4" to="54653902#2"/>
    <trip id="veh194" type="veh_passenger" depart="806.03" departLane="best" from="179123126#0" to="4769351#4"/>
    <trip id="veh195" type="veh_passenger" depart="810.18" departLane="best" from="38300047" to="90200380#5"/>
    <trip id="veh196" type="veh_passenger" depart="814.34" departLane="best" from="38128427#1" to="8065751#5"/>
    <trip id="veh197" type="veh_passenger" depart="818.49" departLane="best" from="6016588#1" to="38128441"/>
    <trip id="veh198" type="veh_passenger" depart="822.65" departLane="best" from="384467498#2" to="33538172#1"/>
    <trip id="veh199" type="veh_passenger" depart="826.80" departLane="best" from="534916585#0" to="38128383#5"/>
    <trip id="veh201" type="veh_passenger" depart="835.11" departLane="best" from="22880047#8" to="-4769351#3"/>
    <trip id="veh203" type="veh_passenger" depart="843.42" departLane="best" from="443006431" to="352764043#1"/>
    <trip id="veh205" type="veh_passenger" depart="851.73" departLane="best" from="-179123126#3" to="-686936940#12"/>
    <trip id="veh206" type="veh_passenger" depart="855.89" departLane="best" from="-560402070" to="-792838976#3"/>
    <trip id="veh207" type="veh_passenger" depart="860.04" departLane="best" from="38128381#0" to="-38128396"/>
    <trip id="veh209" type="veh_passenger" depart="868.35" departLane="best" from="384392312#1" to="-179123115"/>
    <trip id="veh210" type="veh_passenger" depart="872.51" departLane="best" from="150387790#2" to="38128382"/>
    <trip id="veh212" type="veh_passenger" depart="880.81" departLane="best" from="154946367#0" to="609509715#1"/>
    <trip id="veh214" type="veh_passenger" depart="889.12" departLane="best" from="54653902#2" to="4769187#1"/>
    <trip id="veh215" type="veh_passenger" depart="893.28" departLane="best" from="-90200372#4" to="4362581#5"/>
    <trip id="veh216" type="veh_passenger" depart="897.43" departLane="best" from="54653902#0" to="8065814#1"/>
    <trip id="veh217" type="veh_passenger" depart="901.59" departLane="best" from="154946366#0" to="4326327#0"/>
    <trip id="veh218" type="veh_passenger" depart="905.74" departLane="best" from="-38300053#1" to="-38300052"/>
    <trip id="veh219" type="veh_passenger" depart="909.90" departLane="best" from="-8065814#3" to="384392309#0"/>
    <trip id="veh220" type="veh_passenger" depart="914.05" departLane="best" from="150387788#1" to="-38128426#3"/>
    <trip id="veh221" type="veh_passenger" depart="918.21" departLane="best" from="189952179#1" to="-38128385"/>
    <trip id="veh223" type="veh_passenger" depart="926.52" departLane="best" from="143317263" to="38128394#4"/>
    <trip id="veh225" type="veh_passenger" depart="934.83" departLane="best" from="-38128394#4" to="179123127#2"/>
    <trip id="veh226" type="veh_passenger" depart="938.98" departLane="best" from="-154946371#1" to="142725087#1"/>
    <trip id="veh229" type="veh_passenger" depart="951.45" departLane="best" from="4326325#0" to="544650154#0"/>
    <trip id="veh231" type="veh_passenger" depart="959.76" departLane="best" from="-143317260#0" to="38128381#0"/>
    <trip id="veh232" type="veh_passenger" depart="963.91" departLane="best" from="96783580" to="-90200372#2"/>
    <trip id="veh233" type="veh_passenger" depart="968.07" departLane="best" departSpeed="max" from="38128483#0" to="4769209#1"/>
    <trip id="veh235" type="veh_passenger" depart="976.37" departLane="best" from="-143317260#1" to="-38128418"/>
    <trip id="veh236" type="veh_passenger" depart="980.53" departLane="best" from="-38128384#5" to="384392306#2"/>
    <trip id="veh237" type="veh_passenger" depart="984.68" departLane="best" from="38128394#4" to="-38300048#0"/>
    <trip id="veh238" type="veh_passenger" depart="988.84" departLane="best" from="384392311#0" to="4769187#2"/>
    <trip id="veh239" type="veh_passenger" depart="992.99" departLane="best" from="534916557" to="8065814#7"/>
    <trip id="veh240" type="veh_passenger" depart="997.15" departLane="best" from="-33857819#8" to="-143317265"/>
    <trip id="veh241" type="veh_passenger" depart="1001.30" departLane="best" from="-744686036#2" to="384392309#0"/>
    <trip id="veh242" type="veh_passenger" depart="1005.46" departLane="best" from="8065814#15" to="150387778#0"/>
    <trip id="veh243" type="veh_passenger" depart="1009.61" departLane="best" from="384467498#1" to="-179123126#1"/>
    <trip id="veh245" type="veh_passenger" depart="1017.92" departLane="best" from="-33857819#1" to="4769208#2"/>
    <trip id="veh246" type="veh_passenger" depart="1022.08" departLane="best" from="54653897#1" to="38128429#3"/>
    <trip id="veh247" type="veh_passenger" depart="1026.23" departLane="best" from="-38128383#9" to="90200380#1"/>
    <trip id="veh248" type="veh_passenger" depart="1030.39" departLane="best" from="4769208#2" to="-90200364#4"/>
    <trip id="veh249" type="veh_passenger" depart="1034.54" departLane="best" from="154946370#3" to="1009769903"/>
    <trip id="veh250" type="veh_passenger" depart="1038.70" departLane="best" from="54653897#1" to="534916585#0"/>
    <trip id="veh251" type="veh_passenger" depart="1042.85" departLane="best" from="-33857819#5" to="8065814#18"/>
    <trip id="veh253" type="veh_passenger" depart="1051.16" departLane="best" from="384392314" to="179058351"/>
    <trip id="veh254" type="veh_passenger" depart="1055.32" departLane="best" from="384467504#1" to="8065814#8"/>
    <trip id="veh255" type="veh_passenger" depart="1059.47" departLane="best" from="-54902503#7" to="4769353#2"/>
    <trip id="veh256" type="veh_passenger" depart="1063.63" departLane="best" from="37999801#0" to="23298885#3"/>
    <trip id="veh257" type="veh_passenger" depart="1067.78" departLane="best" from="179058357" to="40916610#1"/>
    <trip id="veh259" type="veh_passenger" depart="1076.09" departLane="best" from="534916585#0" to="-23111989#1"/>
    <trip id="veh261" type="veh_passenger" depart="1084.40" departLane="best" from="187114679" to="38128439#0"/>
    <trip id="veh262" type="veh_passenger" depart="1088.55" departLane="best" from="142725087#1" to="-154946349#2"/>
    <trip id="veh263" type="veh_passenger" depart="1092.71" departLane="best" from="54653897#1" to="-38128439#1"/>
    <trip id="veh265" type="veh_passenger" depart="1101.02" departLane="best" from="-8065814#9" to="6016588#0"/>
    <trip id="veh267" type="veh_passenger" depart="1109.33" departLane="best" from="-142725087#2" to="8065751#3"/>
    <trip id="veh268" type="veh_passenger" depart="1113.48" departLane="best" from="-189952179#1" to="384467504#0"/>
    <trip id="veh269" type="veh_passenger" depart="1117.64" departLane="best" from="26442127#0" to="443006431"/>
    <trip id="veh271" type="veh_passenger" depart="1125.95" departLane="best" from="-26442127#0" to="-38300053#2"/>
    <trip id="veh272" type="veh_passenger" depart="1130.10" departLane="best" from="384392309#0" to="-71057221"/>
    <trip id="veh273" type="veh_passenger" depart="1134.26" departLane="best" from="38128418" to="22880047#4"/>
    <trip id="veh274" type="veh_passenger" depart="1138.41" departLane="best" from="377158709" to="154946369"/>
    <trip id="veh275" type="veh_passenger" depart="1142.57" departLane="best" from="40916612#0" to="-8065814#14"/>
    <trip id="veh276" type="veh_passenger" depart="1146.72" departLane="best" from="384392311#3" to="-54902503#8"/>
    <trip id="veh281" type="veh_passenger" depart="1167.49" departLane="best" from="23298885#5" to="38508056"/>
    <trip id="veh282" type="veh_passenger" depart="1171.65" departLane="best" from="90200364#3" to="352764043#3"/>
    <trip id="veh283" type="veh_passenger" depart="1175.80" departLane="best" from="-57400731#1" to="-33538172#2"/>
    <trip id="veh285" type="veh_passenger" depart="1184.11" departLane="best" from="-38128436#0" to="-143317252"/>
    <trip id="veh286" type="veh_passenger" depart="1188.27" departLane="best" from="90200364#1" to="38128384#4"/>
    <trip id="veh287" type="veh_passenger" depart="1192.42" departLane="best" from="384392311#0" to="-38128384#5"/>
    <trip id="veh288" type="veh_passenger" depart="1196.58" departLane="best" from="54902503#1" to="26442127#2"/>
    <trip id="veh289" type="veh_passenger" depart="1200.73" departLane="best" from="54902503#6" to="38128404"/>
    <trip id="veh290" type="veh_passenger" depart="1204.89" departLane="best" from="22880047#1" to="179123103"/>
    <trip id="veh292" type="veh_passenger" depart="1213.20" departLane="best" from="744686036#6" to="22880047#9"/>
    <trip id="veh293" type="veh_passenger" depart="1217.35" departLane="best" from="534916561" to="150387778#1"/>
    <trip id="veh295" type="veh_passenger" depart="1225.66" departLane="best" from="-179058351" to="-38128415"/>
    <trip id="veh296" type="veh_passenger" depart="1229.82" departLane="best" from="38128394#3" to="-694559943#2"/>
    <trip id="veh298" type="veh_passenger" depart="1238.13" departLane="best" from="4769209#2" to="-384392312#0"/>
    <trip id="veh299" type="veh_passenger" depart="1242.28" departLane="best" from="352764043#1" to="179123119#0"/>
    <trip id="veh300" type="veh_passenger" depart="1246.44" departLane="best" from="179123105#1" to="54902503#1"/>
    <trip id="veh301" type="veh_passenger" depart="1250.59" departLane="best" from="90200380#7" to="-71057216"/>
    <trip id="veh303" type="veh_passenger" depart="1258.90" departLane="best" from="39428037#3" to="8065751#2"/>
    <trip id="veh304" type="veh_passenger" depart="1263.06" departLane="best" from="38128483#1-AddedOnRampEdge" to="-38128422"/>
    <trip id="veh305" type="veh_passenger" depart="1267.21" departLane="best" from="-38128431#0" to="-179123126#0"/>
    <trip id="veh306" type="veh_passenger" depart="1271.36" departLane="best" from="-142725084" to="179123119#0"/>
    <trip id="veh307" type="veh_passenger" depart="1275.52" departLane="best" from="38128426#3" to="-686936940#5"/>
    <trip id="veh308" type="veh_passenger" depart="1279.67" departLane="best" from="384392311#3" to="179123124#1"/>
    <trip id="veh309" type="veh_passenger" depart="1283.83" departLane="best" from="384392307#1" to="694559935#1"/>
    <trip id="veh311" type="veh_passenger" depart="1292.14" departLane="best" from="38128483#1-AddedOnRampEdge" to="71057233"/>
    <trip id="veh312" type="veh_passenger" depart="1296.29" departLane="best" from="154946369" to="38128383#10"/>
    <trip id="veh313" type="veh_passenger" depart="1300.45" departLane="best" departSpeed="max" from="38128479" to="686936940#10"/>
    <trip id="veh314" type="veh_passenger" depart="1304.60" departLane="best" from="534916569" to="-179123124#0"/>
    <trip id="veh315" type="veh_passenger" depart="1308.76" departLane="best" from="-38128426#4" to="-71057233"/>
    <trip id="veh316" type="veh_passenger" depart="1312.91" departLane="best" from="40916616#2" to="38128397#2"/>
    <trip id="veh317" type="veh_passenger" depart="1317.07" departLane="best" from="-686936940#2" to="-38128384#3"/>